@<TRIPOS>MOLECULE
5459319
 73 75 0 0 0
SMALL
GASTEIGER

@<TRIPOS>ATOM
      1 O          -3.4754   -0.2655   -0.1665 O.3     1  UNL1       -0.4562
      2 O          -4.8894    0.8002   -1.6525 O.2     1  UNL1       -0.2435
      3 O          -1.1986    0.8429   -1.2896 O.2     1  UNL1       -0.2678
      4 O           1.9717    2.9449    1.0385 O.2     1  UNL1       -0.4467
      5 O           0.3544   -2.3822   -0.2323 O.2     1  UNL1       -0.2708
      6 O           6.7062   -0.2078   -0.8898 O.3     1  UNL1       -0.3873
      7 O           5.3195    2.2019    0.5759 O.2     1  UNL1       -0.2968
      8 N          -2.2423    2.3789    0.1051 N.am    1  UNL1       -0.2601
      9 N           1.2013    2.3380   -0.9956 N.ar    1  UNL1       -0.2083
     10 N           1.0432   -1.3955    1.7537 N.am    1  UNL1       -0.3083
     11 C          -3.8867   -1.5845   -0.6041 C.3     1  UNL1        0.1117
     12 C          -5.1793   -1.9624    0.1182 C.3     1  UNL1       -0.0089
     13 C          -2.6901   -2.5417   -0.3712 C.3     1  UNL1        0.0121
     14 C          -5.6390   -3.3567   -0.3005 C.3     1  UNL1       -0.0593
     15 C          -6.2694   -0.9305   -0.1594 C.3     1  UNL1       -0.0593
     16 C          -2.9599   -3.9412   -0.9272 C.3     1  UNL1       -0.0556
     17 C          -2.2950   -2.6420    1.0861 C.2     1  UNL1       -0.0728
     18 C          -3.5614    2.0331   -0.1197 C.2     1  UNL1        0.1175
     19 C          -2.2337    3.6301    0.8968 C.3     1  UNL1        0.0238
     20 C          -3.6891    4.0962    0.9544 C.3     1  UNL1       -0.0162
     21 C          -4.0486    0.8092   -0.7662 C.2     1  UNL1        0.3537
     22 C          -4.4198    2.9489    0.3408 C.2     1  UNL1       -0.0541
     23 C          -1.1047   -2.4080    1.6576 C.2     1  UNL1       -0.0034
     24 C          -1.1284    1.7429   -0.4541 C.2     1  UNL1        0.2725
     25 C           0.1857    2.2267   -0.0697 C.ar    1  UNL1        0.1640
     26 C           0.1501   -2.0671    0.9343 C.2     1  UNL1        0.2368
     27 C           2.2222    2.7871   -0.2958 C.ar    1  UNL1        0.2032
     28 C           0.6707    2.5668    1.1729 C.ar    1  UNL1        0.1245
     29 C           3.5789    3.1378   -0.7641 C.3     1  UNL1        0.0824
     30 C           4.5223    0.7713   -1.2071 C.3     1  UNL1        0.0360
     31 C           5.3231   -0.3702   -0.5707 C.3     1  UNL1        0.0805
     32 C           4.5468    2.0446   -0.3696 C.2     1  UNL1        0.1450
     33 C           2.3685   -1.0026    1.3113 C.3     1  UNL1        0.0305
     34 C           4.8583   -1.7004   -1.1009 C.2     1  UNL1       -0.0526
     35 C           4.3611   -2.7363   -0.3969 C.2     1  UNL1       -0.0522
     36 C           3.3533   -2.0249    1.7874 C.2     1  UNL1       -0.0668
     37 C           4.1973   -2.7593    1.0455 C.2     1  UNL1       -0.0615
     38 C           3.9763   -4.0230   -1.0752 C.3     1  UNL1       -0.0399
     39 H          -4.0651   -1.5467   -1.6884 H       1  UNL1        0.0742
     40 H          -5.0311   -1.9518    1.2046 H       1  UNL1        0.0331
     41 H          -1.8645   -2.1101   -0.9466 H       1  UNL1        0.0376
     42 H          -5.5479   -3.5381   -1.3741 H       1  UNL1        0.0233
     43 H          -6.7087   -3.4707   -0.0786 H       1  UNL1        0.0233
     44 H          -5.1749   -4.1418    0.2952 H       1  UNL1        0.0233
     45 H          -6.4774   -0.8212   -1.2276 H       1  UNL1        0.0233
     46 H          -7.2121   -1.2767    0.2856 H       1  UNL1        0.0233
     47 H          -6.0881    0.0300    0.3271 H       1  UNL1        0.0233
     48 H          -3.3825   -4.6482   -0.2117 H       1  UNL1        0.0237
     49 H          -3.5217   -3.9271   -1.8647 H       1  UNL1        0.0237
     50 H          -1.9898   -4.3888   -1.1879 H       1  UNL1        0.0237
     51 H          -3.0915   -2.9337    1.7694 H       1  UNL1        0.0577
     52 H          -1.5794    4.3729    0.4289 H       1  UNL1        0.0472
     53 H          -1.8661    3.4046    1.9030 H       1  UNL1        0.0472
     54 H          -3.8398    5.0086    0.3688 H       1  UNL1        0.0323
     55 H          -4.0092    4.2804    1.9841 H       1  UNL1        0.0323
     56 H          -5.4970    2.8899    0.2772 H       1  UNL1        0.0593
     57 H          -1.0280   -2.5010    2.7385 H       1  UNL1        0.0666
     58 H           0.2736    2.5915    2.1764 H       1  UNL1        0.1054
     59 H           3.9085    4.0834   -0.3206 H       1  UNL1        0.0437
     60 H           3.6053    3.2621   -1.8513 H       1  UNL1        0.0437
     61 H           3.4734    0.4787   -1.3232 H       1  UNL1        0.0370
     62 H           4.9261    1.0261   -2.1941 H       1  UNL1        0.0370
     63 H           0.7870   -1.1806    2.7134 H       1  UNL1        0.1493
     64 H           5.2469   -0.3254    0.5194 H       1  UNL1        0.0642
     65 H           2.5936   -0.0325    1.7640 H       1  UNL1        0.0506
     66 H           2.3602   -0.8895    0.2254 H       1  UNL1        0.0506
     67 H           4.9542   -1.8174   -2.1801 H       1  UNL1        0.0600
     68 H           3.3749   -2.1911    2.8640 H       1  UNL1        0.0588
     69 H           4.8142   -3.4945    1.5596 H       1  UNL1        0.0618
     70 H           4.5755   -4.8568   -0.6932 H       1  UNL1        0.0277
     71 H           4.1272   -3.9797   -2.1594 H       1  UNL1        0.0277
     72 H           2.9180   -4.2468   -0.9006 H       1  UNL1        0.0277
     73 H           7.1942   -0.9322   -0.4616 H       1  UNL1        0.2102
@<TRIPOS>BOND
     1     1    11    1
     2     1    21    1
     3     2    21    2
     4     3    24    2
     5     4    27   ar
     6     4    28   ar
     7     5    26    2
     8     6    31    1
     9     6    73    1
    10     7    32    2
    11     8    18    1
    12     8    19    1
    13     8    24   am
    14     9    25   ar
    15     9    27   ar
    16    10    26   am
    17    10    33    1
    18    10    63    1
    19    11    12    1
    20    11    13    1
    21    11    39    1
    22    12    14    1
    23    12    15    1
    24    12    40    1
    25    13    16    1
    26    13    17    1
    27    13    41    1
    28    14    42    1
    29    14    43    1
    30    14    44    1
    31    15    45    1
    32    15    46    1
    33    15    47    1
    34    16    48    1
    35    16    49    1
    36    16    50    1
    37    17    23    2
    38    17    51    1
    39    18    21    1
    40    18    22    2
    41    19    20    1
    42    19    52    1
    43    19    53    1
    44    20    22    1
    45    20    54    1
    46    20    55    1
    47    22    56    1
    48    23    26    1
    49    23    57    1
    50    24    25    1
    51    25    28   ar
    52    27    29    1
    53    28    58    1
    54    29    32    1
    55    29    59    1
    56    29    60    1
    57    30    31    1
    58    30    32    1
    59    30    61    1
    60    30    62    1
    61    31    34    1
    62    31    64    1
    63    33    36    1
    64    33    65    1
    65    33    66    1
    66    34    35    2
    67    34    67    1
    68    35    37    1
    69    35    38    1
    70    36    37    2
    71    36    68    1
    72    37    69    1
    73    38    70    1
    74    38    71    1
    75    38    72    1
