@<TRIPOS>MOLECULE
6323289
 98 100 0 0 0
SMALL
GASTEIGER

@<TRIPOS>ATOM
      1 S           4.3669    0.5653   -1.5853 S.O2    1  UNL1       -0.0247
      2 O           0.4777   -1.6256    0.6179 O.3     1  UNL1       -0.4592
      3 O           4.1024    1.8448   -0.9545 O.2     1  UNL1       -0.1740
      4 O           4.7352    0.4875   -2.9864 O.2     1  UNL1       -0.1740
      5 O           2.4310   -2.8403    0.5679 O.2     1  UNL1       -0.2487
      6 O           1.8928    0.9244    2.4885 O.2     1  UNL1       -0.2682
      7 O          -0.8874    4.0238    2.3121 O.2     1  UNL1       -0.4467
      8 O          -3.7832   -2.2645   -0.6486 O.2     1  UNL1       -0.2708
      9 O          -3.1983    3.5925   -1.6098 O.2     1  UNL1       -0.2968
     10 O          -3.0568    0.6480   -0.6406 O.3     1  UNL1       -0.3873
     11 N           1.5890    0.6717    0.2228 N.am    1  UNL1       -0.2810
     12 N           7.9981   -0.1856    0.0160 N.3     1  UNL1       -0.3013
     13 N          -0.4344    2.7938    0.4754 N.ar    1  UNL1       -0.2083
     14 N          -5.8257   -2.7460    0.3482 N.am    1  UNL1       -0.3083
     15 C           2.9518   -0.4715   -1.3335 C.3     1  UNL1        0.1071
     16 C           2.5120   -0.4631    0.1297 C.3     1  UNL1        0.1454
     17 C           1.7307    0.0659   -2.0728 C.3     1  UNL1       -0.0125
     18 C           1.1213    1.0731   -1.1042 C.3     1  UNL1        0.0178
     19 C           5.6363   -0.2491   -0.6460 C.3     1  UNL1        0.0788
     20 C           1.8229   -1.7796    0.4789 C.2     1  UNL1        0.3300
     21 C           1.3394    1.2916    1.4502 C.2     1  UNL1        0.2688
     22 C           6.9662    0.4748   -0.7740 C.3     1  UNL1        0.0183
     23 C          -0.3368   -2.7911    0.8931 C.3     1  UNL1        0.1114
     24 C          -0.5827   -3.5168   -0.4303 C.3     1  UNL1       -0.0089
     25 C          -1.6448   -2.2829    1.5461 C.3     1  UNL1        0.0121
     26 C           0.3817    2.3847    1.5016 C.ar    1  UNL1        0.1637
     27 C           9.2652    0.5420   -0.0789 C.3     1  UNL1       -0.0039
     28 C           8.1750   -1.5715   -0.4216 C.3     1  UNL1       -0.0039
     29 C          -1.2901   -2.5966   -1.4212 C.3     1  UNL1       -0.0593
     30 C           0.7327   -4.0267   -1.0129 C.3     1  UNL1       -0.0593
     31 C          -1.3473   -1.5363    2.8558 C.3     1  UNL1       -0.0556
     32 C          -2.6181   -3.3996    1.8406 C.2     1  UNL1       -0.0728
     33 C           0.1066    3.1477    2.6177 C.ar    1  UNL1        0.1245
     34 C           9.1049    1.9843    0.3708 C.3     1  UNL1       -0.0524
     35 C           9.2009   -2.2917    0.4371 C.3     1  UNL1       -0.0524
     36 C          -1.1750    3.7439    1.0070 C.ar    1  UNL1        0.2032
     37 C          -3.8351   -3.6099    1.3177 C.2     1  UNL1       -0.0034
     38 C          -2.2873    4.5047    0.3990 C.3     1  UNL1        0.0824
     39 C          -4.4469   -2.7935    0.2351 C.2     1  UNL1        0.2368
     40 C          -3.1722    3.5535   -0.3796 C.2     1  UNL1        0.1450
     41 C          -4.0417    2.5925    0.4293 C.3     1  UNL1        0.0360
     42 C          -4.2932    1.2332   -0.2346 C.3     1  UNL1        0.0805
     43 C          -6.6740   -2.0353   -0.5923 C.3     1  UNL1        0.0305
     44 C          -5.2386    1.3037   -1.4045 C.2     1  UNL1       -0.0526
     45 C          -7.3002   -0.8662    0.1045 C.2     1  UNL1       -0.0668
     46 C          -6.5393    0.9537   -1.4175 C.2     1  UNL1       -0.0522
     47 C          -7.2434    0.4226   -0.2667 C.2     1  UNL1       -0.0615
     48 C          -7.3879    1.1194   -2.6472 C.3     1  UNL1       -0.0399
     49 H           3.2268   -1.4648   -1.7040 H       1  UNL1        0.0560
     50 H           3.3091   -0.3272    0.8633 H       1  UNL1        0.0636
     51 H           1.0196   -0.7483   -2.2436 H       1  UNL1        0.0299
     52 H           1.9523    0.5169   -3.0444 H       1  UNL1        0.0299
     53 H           1.4576    2.0949   -1.3050 H       1  UNL1        0.0465
     54 H           0.0292    1.0360   -1.1469 H       1  UNL1        0.0465
     55 H           5.6591   -1.2603   -1.0602 H       1  UNL1        0.0513
     56 H           5.3321   -0.2900    0.4016 H       1  UNL1        0.0513
     57 H           6.7918    1.4965   -0.4214 H       1  UNL1        0.0442
     58 H           7.2590    0.5463   -1.8298 H       1  UNL1        0.0442
     59 H           0.1913   -3.4449    1.6006 H       1  UNL1        0.0742
     60 H          -1.2185   -4.3908   -0.2443 H       1  UNL1        0.0331
     61 H          -2.1126   -1.5203    0.9216 H       1  UNL1        0.0376
     62 H          10.0116    0.1045    0.5921 H       1  UNL1        0.0424
     63 H           9.6772    0.5172   -1.0956 H       1  UNL1        0.0424
     64 H           8.4600   -1.6369   -1.4791 H       1  UNL1        0.0424
     65 H           7.2561   -2.1488   -0.2887 H       1  UNL1        0.0424
     66 H          -1.6129   -1.6321   -1.0353 H       1  UNL1        0.0233
     67 H          -2.1107   -3.1324   -1.9072 H       1  UNL1        0.0233
     68 H          -0.6185   -2.3437   -2.2510 H       1  UNL1        0.0233
     69 H           1.2904   -4.6377   -0.2974 H       1  UNL1        0.0233
     70 H           0.4938   -4.7083   -1.8411 H       1  UNL1        0.0233
     71 H           1.3533   -3.2546   -1.4721 H       1  UNL1        0.0233
     72 H          -0.7331   -0.6487    2.6752 H       1  UNL1        0.0237
     73 H          -0.8140   -2.1751    3.5688 H       1  UNL1        0.0237
     74 H          -2.2737   -1.1980    3.3345 H       1  UNL1        0.0237
     75 H          -2.2940   -4.1040    2.6067 H       1  UNL1        0.0577
     76 H           0.4799    3.1835    3.6305 H       1  UNL1        0.1054
     77 H           8.6010    2.6037   -0.3776 H       1  UNL1        0.0242
     78 H           8.5647    2.0582    1.3209 H       1  UNL1        0.0242
     79 H          10.0942    2.4305    0.5250 H       1  UNL1        0.0242
     80 H           9.1465   -3.3699    0.2473 H       1  UNL1        0.0242
     81 H           9.0153   -2.1397    1.5059 H       1  UNL1        0.0242
     82 H          10.2267   -1.9880    0.2069 H       1  UNL1        0.0242
     83 H          -4.4248   -4.4446    1.6880 H       1  UNL1        0.0666
     84 H          -2.8975    5.0164    1.1499 H       1  UNL1        0.0437
     85 H          -1.8915    5.2638   -0.2835 H       1  UNL1        0.0437
     86 H          -3.5272    2.4059    1.3796 H       1  UNL1        0.0370
     87 H          -4.9832    3.1021    0.6632 H       1  UNL1        0.0370
     88 H          -6.2832   -3.2303    1.1158 H       1  UNL1        0.1493
     89 H          -4.7011    0.5638    0.5304 H       1  UNL1        0.0642
     90 H          -7.4570   -2.7322   -0.9079 H       1  UNL1        0.0506
     91 H          -6.0972   -1.7491   -1.4760 H       1  UNL1        0.0506
     92 H          -4.8117    1.6950   -2.3264 H       1  UNL1        0.0600
     93 H          -7.8963   -1.1012    0.9853 H       1  UNL1        0.0588
     94 H          -2.4581    0.6619    0.1256 H       1  UNL1        0.2102
     95 H          -7.8014    1.1551    0.3125 H       1  UNL1        0.0618
     96 H          -6.8230    1.5466   -3.4828 H       1  UNL1        0.0277
     97 H          -8.2323    1.7877   -2.4459 H       1  UNL1        0.0277
     98 H          -7.7820    0.1521   -2.9779 H       1  UNL1        0.0277
@<TRIPOS>BOND
     1     1     3    2
     2     1     4    2
     3     1    15    1
     4     1    19    1
     5     2    20    1
     6     2    23    1
     7     5    20    2
     8     6    21    2
     9     7    33   ar
    10     7    36   ar
    11     8    39    2
    12     9    40    2
    13    10    42    1
    14    10    94    1
    15    11    16    1
    16    11    18    1
    17    11    21   am
    18    12    22    1
    19    12    27    1
    20    12    28    1
    21    13    26   ar
    22    13    36   ar
    23    14    39   am
    24    14    43    1
    25    14    88    1
    26    15    16    1
    27    15    17    1
    28    15    49    1
    29    16    20    1
    30    16    50    1
    31    17    18    1
    32    17    51    1
    33    17    52    1
    34    18    53    1
    35    18    54    1
    36    19    22    1
    37    19    55    1
    38    19    56    1
    39    21    26    1
    40    22    57    1
    41    22    58    1
    42    23    24    1
    43    23    25    1
    44    23    59    1
    45    24    29    1
    46    24    30    1
    47    24    60    1
    48    25    31    1
    49    25    32    1
    50    25    61    1
    51    26    33   ar
    52    27    34    1
    53    27    62    1
    54    27    63    1
    55    28    35    1
    56    28    64    1
    57    28    65    1
    58    29    66    1
    59    29    67    1
    60    29    68    1
    61    30    69    1
    62    30    70    1
    63    30    71    1
    64    31    72    1
    65    31    73    1
    66    31    74    1
    67    32    37    2
    68    32    75    1
    69    33    76    1
    70    34    77    1
    71    34    78    1
    72    34    79    1
    73    35    80    1
    74    35    81    1
    75    35    82    1
    76    36    38    1
    77    37    39    1
    78    37    83    1
    79    38    40    1
    80    38    84    1
    81    38    85    1
    82    40    41    1
    83    41    42    1
    84    41    86    1
    85    41    87    1
    86    42    44    1
    87    42    89    1
    88    43    45    1
    89    43    90    1
    90    43    91    1
    91    44    46    2
    92    44    92    1
    93    45    47    2
    94    45    93    1
    95    46    47    1
    96    46    48    1
    97    47    95    1
    98    48    96    1
    99    48    97    1
   100    48    98    1
