@<TRIPOS>MOLECULE
165580
 87 90 0 0 0
SMALL
GASTEIGER

@<TRIPOS>ATOM
      1 O          -0.6924   -1.5556    0.2040 O.3     1  UNL1       -0.3402
      2 O          -3.0794   -0.1245    0.7944 O.3     1  UNL1       -0.3422
      3 O          -0.0240   -1.4510    2.4577 O.3     1  UNL1       -0.3405
      4 O           3.2730   -0.3591    1.5591 O.3     1  UNL1       -0.3410
      5 O          -1.1369   -4.3895   -0.2220 O.3     1  UNL1       -0.3876
      6 O          -3.4668    1.5773   -0.7758 O.3     1  UNL1       -0.3415
      7 O           3.4736    0.6008   -0.5792 O.3     1  UNL1       -0.3425
      8 O           2.3822   -2.9548    1.4649 O.3     1  UNL1       -0.3841
      9 O          -0.9601    3.6212    0.7897 O.3     1  UNL1       -0.3874
     10 O          -4.4269    4.3083    0.0121 O.3     1  UNL1       -0.3865
     11 O           6.3233   -1.4365   -1.2428 O.3     1  UNL1       -0.3874
     12 O           0.0235    0.5747    4.4201 O.3     1  UNL1       -0.3924
     13 O           5.8057    2.1710   -1.4264 O.3     1  UNL1       -0.3866
     14 O          -1.9273    1.6436   -3.0643 O.3     1  UNL1       -0.3924
     15 N          -5.2894   -0.6592   -1.0105 N.3     1  UNL1       -0.3250
     16 N          -3.2830   -4.9863   -2.0627 N.3     1  UNL1       -0.3250
     17 N          -4.1179    2.1778    2.0433 N.3     1  UNL1       -0.3211
     18 N           5.6735    1.1062    1.3365 N.3     1  UNL1       -0.3211
     19 N           1.9379    1.2402   -2.8267 N.3     1  UNL1       -0.3276
     20 C          -1.9834   -2.1722    0.1738 C.3     1  UNL1        0.1166
     21 C          -2.9963   -1.1019   -0.2470 C.3     1  UNL1        0.1055
     22 C          -4.3879   -1.6959   -0.5015 C.3     1  UNL1        0.0355
     23 C          -1.9461   -3.3593   -0.7956 C.3     1  UNL1        0.0990
     24 C          -3.3473   -3.9330   -1.0455 C.3     1  UNL1        0.0351
     25 C          -4.3225   -2.8470   -1.5087 C.3     1  UNL1       -0.0175
     26 C           0.1339   -2.1420    1.2025 C.3     1  UNL1        0.1884
     27 C           1.8940   -0.5991    1.3756 C.3     1  UNL1        0.1205
     28 C           1.5927   -1.9704    0.8049 C.3     1  UNL1        0.1345
     29 C           1.1425   -0.6434    2.6960 C.3     1  UNL1        0.1135
     30 C          -2.6673    1.1608    0.3298 C.3     1  UNL1        0.1776
     31 C          -2.7609    2.1676    1.4862 C.3     1  UNL1        0.0853
     32 C           3.9854   -0.3801    0.3242 C.3     1  UNL1        0.1776
     33 C          -2.3710    3.5726    1.0013 C.3     1  UNL1        0.1033
     34 C           5.4817   -0.1436    0.5936 C.3     1  UNL1        0.0853
     35 C          -3.0758    3.9613   -0.3040 C.3     1  UNL1        0.1109
     36 C          -3.0947    2.8350   -1.3525 C.3     1  UNL1        0.1129
     37 C           6.2614   -0.1035   -0.7311 C.3     1  UNL1        0.1033
     38 C           0.7222    0.7277    3.1954 C.3     1  UNL1        0.0730
     39 C           5.5946    0.8047   -1.7748 C.3     1  UNL1        0.1100
     40 C           4.0855    0.5247   -1.8728 C.3     1  UNL1        0.1022
     41 C          -1.7947    2.7124   -2.1453 C.3     1  UNL1        0.0730
     42 C           3.3655    1.5199   -2.7761 C.3     1  UNL1        0.0222
     43 H          -2.2448   -2.5092    1.1876 H       1  UNL1        0.0650
     44 H          -2.6212   -0.6534   -1.1794 H       1  UNL1        0.0639
     45 H          -4.8042   -2.0599    0.4466 H       1  UNL1        0.0485
     46 H          -1.4648   -3.0596   -1.7348 H       1  UNL1        0.0636
     47 H          -3.7268   -4.3897   -0.1222 H       1  UNL1        0.0485
     48 H          -5.3232   -3.2799   -1.6411 H       1  UNL1        0.0297
     49 H          -4.0126   -2.4641   -2.4917 H       1  UNL1        0.0297
     50 H          -0.0913   -3.1922    1.3963 H       1  UNL1        0.0938
     51 H           1.4507    0.1771    0.7369 H       1  UNL1        0.0651
     52 H           1.7595   -2.0429   -0.2741 H       1  UNL1        0.0671
     53 H           1.7287   -1.1464    3.4755 H       1  UNL1        0.0647
     54 H          -1.6195    1.0720    0.0187 H       1  UNL1        0.0927
     55 H          -2.0897    1.8422    2.2876 H       1  UNL1        0.0535
     56 H           3.8828   -1.3731   -0.1295 H       1  UNL1        0.0927
     57 H          -2.5994    4.3130    1.7784 H       1  UNL1        0.0637
     58 H          -5.3668    0.0920   -0.3259 H       1  UNL1        0.1185
     59 H          -6.2262   -1.0445   -1.1230 H       1  UNL1        0.1185
     60 H           5.8517   -0.9631    1.2227 H       1  UNL1        0.0535
     61 H          -4.2043   -5.4058   -2.1806 H       1  UNL1        0.1185
     62 H          -2.6653   -5.7313   -1.7427 H       1  UNL1        0.1185
     63 H          -2.6081    4.8566   -0.7306 H       1  UNL1        0.0646
     64 H          -3.8923    3.0428   -2.0770 H       1  UNL1        0.0647
     65 H           7.2934    0.2176   -0.5437 H       1  UNL1        0.0637
     66 H          -1.5873   -4.7177    0.5751 H       1  UNL1        0.2100
     67 H           1.5934    1.3681    3.3640 H       1  UNL1        0.0584
     68 H           0.0528    1.2120    2.4810 H       1  UNL1        0.0584
     69 H           6.0455    0.6449   -2.7615 H       1  UNL1        0.0646
     70 H           3.9281   -0.4886   -2.2676 H       1  UNL1        0.0636
     71 H           2.1236   -3.8216    1.1080 H       1  UNL1        0.2101
     72 H          -4.3546    1.2453    2.3800 H       1  UNL1        0.1187
     73 H          -4.1505    2.7951    2.8535 H       1  UNL1        0.1187
     74 H          -1.5928    3.6340   -2.7006 H       1  UNL1        0.0584
     75 H          -0.9336    2.4951   -1.5095 H       1  UNL1        0.0584
     76 H           3.4811    2.5400   -2.3943 H       1  UNL1        0.0448
     77 H           3.7839    1.4883   -3.7879 H       1  UNL1        0.0448
     78 H           6.6594    1.2181    1.5688 H       1  UNL1        0.1187
     79 H           5.1712    1.0562    2.2219 H       1  UNL1        0.1187
     80 H          -0.5293    3.4266    1.6393 H       1  UNL1        0.2100
     81 H          -4.8469    4.6283   -0.8045 H       1  UNL1        0.2100
     82 H           6.8434   -1.4107   -2.0641 H       1  UNL1        0.2100
     83 H           6.7661    2.3203   -1.3952 H       1  UNL1        0.2100
     84 H          -0.2412    1.4640    4.7112 H       1  UNL1        0.2095
     85 H           1.7830    0.3050   -3.2010 H       1  UNL1        0.1183
     86 H           1.4876    1.8857   -3.4741 H       1  UNL1        0.1183
     87 H          -1.0930    1.5862   -3.5605 H       1  UNL1        0.2095
@<TRIPOS>BOND
     1     1    20    1
     2     1    26    1
     3     2    21    1
     4     2    30    1
     5     3    26    1
     6     3    29    1
     7     4    27    1
     8     4    32    1
     9     5    23    1
    10     5    66    1
    11     6    30    1
    12     6    36    1
    13     7    32    1
    14     7    40    1
    15     8    28    1
    16     8    71    1
    17     9    33    1
    18     9    80    1
    19    10    35    1
    20    10    81    1
    21    11    37    1
    22    11    82    1
    23    12    38    1
    24    12    84    1
    25    13    39    1
    26    13    83    1
    27    14    41    1
    28    14    87    1
    29    15    22    1
    30    15    58    1
    31    15    59    1
    32    16    24    1
    33    16    61    1
    34    16    62    1
    35    17    31    1
    36    17    72    1
    37    17    73    1
    38    18    34    1
    39    18    78    1
    40    18    79    1
    41    19    42    1
    42    19    85    1
    43    19    86    1
    44    20    21    1
    45    20    23    1
    46    20    43    1
    47    21    22    1
    48    21    44    1
    49    22    25    1
    50    22    45    1
    51    23    24    1
    52    23    46    1
    53    24    25    1
    54    24    47    1
    55    25    48    1
    56    25    49    1
    57    26    28    1
    58    26    50    1
    59    27    28    1
    60    27    29    1
    61    27    51    1
    62    28    52    1
    63    29    38    1
    64    29    53    1
    65    30    31    1
    66    30    54    1
    67    31    33    1
    68    31    55    1
    69    32    34    1
    70    32    56    1
    71    33    35    1
    72    33    57    1
    73    34    37    1
    74    34    60    1
    75    35    36    1
    76    35    63    1
    77    36    41    1
    78    36    64    1
    79    37    39    1
    80    37    65    1
    81    38    67    1
    82    38    68    1
    83    39    40    1
    84    39    69    1
    85    40    42    1
    86    40    70    1
    87    41    74    1
    88    41    75    1
    89    42    76    1
    90    42    77    1
