@<TRIPOS>MOLECULE
6087
 46 48 0 0 0
SMALL
GASTEIGER

@<TRIPOS>ATOM
      1 S          -1.5677    1.5735    0.4355 S.3     1  UNL1       -0.1273
      2 O          -1.7272   -2.6673   -0.7486 O.2     1  UNL1       -0.2734
      3 O          -5.6450   -0.0358   -1.3787 O.3     1  UNL1       -0.4793
      4 OXT        -5.1925   -1.4572    0.3449 O.2     1  UNL1       -0.2489
      5 O           1.9625   -0.6125    2.0626 O.2     1  UNL1       -0.2699
      6 O           2.2372    2.3150    0.4677 O.3     1  UNL1       -0.4942
      7 O           3.4902   -2.2189   -0.4830 O.3     1  UNL1       -0.4942
      8 N          -2.6222   -0.7957    0.3767 N.am    1  UNL1       -0.2708
      9 N           0.5486   -0.6410    0.2271 N.am    1  UNL1       -0.2975
     10 C          -1.7259   -0.0500    1.2652 C.3     1  UNL1        0.1005
     11 C          -3.2962    1.4370   -0.2455 C.3     1  UNL1        0.0417
     12 CA         -3.4434   -0.0656   -0.5677 C.3     1  UNL1        0.1379
     13 CA         -0.6479   -1.0958    0.9491 C.3     1  UNL1        0.1279
     14 C          -1.7102   -1.7566    0.0480 C.2     1  UNL1        0.2402
     15 C          -4.2671    1.9574    0.8231 C.3     1  UNL1       -0.0484
     16 C          -3.4014    2.2915   -1.5099 C.3     1  UNL1       -0.0484
     17 C          -4.8320   -0.6100   -0.4585 C.2     1  UNL1        0.3269
     18 C           1.7535   -0.4413    0.8644 C.2     1  UNL1        0.2518
     19 C           2.8575    0.0450   -0.0026 C.ar    1  UNL1        0.1197
     20 C           3.0397    1.4060   -0.1547 C.ar    1  UNL1        0.1357
     21 C           3.6709   -0.8764   -0.6335 C.ar    1  UNL1        0.1357
     22 C           4.0756    1.8633   -0.9695 C.ar    1  UNL1       -0.0190
     23 C           4.7066   -0.4190   -1.4483 C.ar    1  UNL1       -0.0190
     24 C           4.9090    0.9508   -1.6162 C.ar    1  UNL1       -0.0548
     25 C           2.6395    2.7535    1.7635 C.3     1  UNL1        0.0788
     26 C           4.1878   -2.8501    0.5887 C.3     1  UNL1        0.0788
     27 H          -2.0791   -0.0232    2.3000 H       1  UNL1        0.0640
     28 HA         -3.0689   -0.3030   -1.5727 H       1  UNL1        0.0631
     29 HA         -0.3956   -1.7382    1.8022 H       1  UNL1        0.0622
     30 H          -4.2487    1.3469    1.7329 H       1  UNL1        0.0244
     31 H          -4.0327    2.9902    1.1081 H       1  UNL1        0.0244
     32 H          -5.2987    1.9609    0.4540 H       1  UNL1        0.0244
     33 H          -3.2034    3.3489   -1.2978 H       1  UNL1        0.0244
     34 H          -2.6925    1.9675   -2.2809 H       1  UNL1        0.0244
     35 H          -4.4050    2.2332   -1.9446 H       1  UNL1        0.0244
     36 H           0.4953   -0.4531   -0.7716 H       1  UNL1        0.1499
     37 H          -6.5620   -0.3793   -1.3227 H       1  UNL1        0.2951
     38 H           4.2388    2.9289   -1.1058 H       1  UNL1        0.0654
     39 H           5.3595   -1.1238   -1.9561 H       1  UNL1        0.0654
     40 H           5.7152    1.3069   -2.2507 H       1  UNL1        0.0620
     41 H           1.8390    3.3720    2.1786 H       1  UNL1        0.0660
     42 H           3.5471    3.3609    1.6896 H       1  UNL1        0.0660
     43 H           2.8120    1.9084    2.4362 H       1  UNL1        0.0660
     44 H           3.8657   -3.8938    0.6383 H       1  UNL1        0.0660
     45 H           3.9647   -2.3703    1.5460 H       1  UNL1        0.0660
     46 H           5.2662   -2.8263    0.4027 H       1  UNL1        0.0660
@<TRIPOS>BOND
     1     1    10    1
     2     1    11    1
     3     2    14    2
     4     3    17    1
     5     3    37    1
     6     4    17    2
     7     5    18    2
     8     6    20    1
     9     6    25    1
    10     7    21    1
    11     7    26    1
    12     8    10    1
    13     8    12    1
    14     8    14   am
    15     9    13    1
    16     9    18   am
    17     9    36    1
    18    10    13    1
    19    10    27    1
    20    11    12    1
    21    11    15    1
    22    11    16    1
    23    12    17    1
    24    12    28    1
    25    13    14    1
    26    13    29    1
    27    15    30    1
    28    15    31    1
    29    15    32    1
    30    16    33    1
    31    16    34    1
    32    16    35    1
    33    18    19    1
    34    19    20   ar
    35    19    21   ar
    36    20    22   ar
    37    21    23   ar
    38    22    24   ar
    39    22    38    1
    40    23    24   ar
    41    23    39    1
    42    24    40    1
    43    25    41    1
    44    25    42    1
    45    25    43    1
    46    26    44    1
    47    26    45    1
    48    26    46    1
