@<TRIPOS>MOLECULE
5325
 30 31 0 0 0
SMALL
GASTEIGER

@<TRIPOS>ATOM
      1 S          -0.4009    2.2821    0.1007 S.O2    1  UNL1        0.0746
      2 O          -1.1139    3.1820    0.9995 O.2     1  UNL1       -0.1499
      3 O          -0.0669    2.7476   -1.2398 O.2     1  UNL1       -0.1499
      4 N           1.0302    1.7512    0.8998 N.pl3   1  UNL1       -0.1836
      5 N           1.7323   -0.4930    1.0884 N.ar    1  UNL1       -0.2185
      6 N           2.3186    0.8216   -0.8442 N.ar    1  UNL1       -0.2217
      7 N          -3.5870   -2.7175   -0.3590 N.pl3   1  UNL1       -0.3580
      8 C          -1.3362    0.8140   -0.0343 C.ar    1  UNL1        0.1087
      9 C          -2.2224    0.4558    0.9816 C.ar    1  UNL1       -0.0333
     10 C          -1.1974   -0.0009   -1.1580 C.ar    1  UNL1       -0.0333
     11 C          -2.8308   -1.5319   -0.2494 C.ar    1  UNL1        0.0247
     12 C          -2.9696   -0.7172    0.8740 C.ar    1  UNL1       -0.0392
     13 C          -1.9446   -1.1737   -1.2655 C.ar    1  UNL1       -0.0392
     14 C           1.7357    0.6259    0.3481 C.ar    1  UNL1        0.2349
     15 C           2.4032   -1.5280    0.5419 C.ar    1  UNL1        0.0433
     16 C           3.0480   -1.4660   -0.6767 C.ar    1  UNL1       -0.0224
     17 C           2.9716   -0.2538   -1.3316 C.ar    1  UNL1        0.0329
     18 C           2.4302   -2.7982    1.3244 C.3     1  UNL1       -0.0222
     19 H           0.9679    1.7198    1.9258 H       1  UNL1        0.1767
     20 H          -2.3415    1.0708    1.8692 H       1  UNL1        0.0638
     21 H          -0.5132    0.2573   -1.9613 H       1  UNL1        0.0638
     22 H          -3.6556   -0.9864    1.6731 H       1  UNL1        0.0636
     23 H          -1.8272   -1.8006   -2.1457 H       1  UNL1        0.0636
     24 H           3.5814   -2.3072   -1.1005 H       1  UNL1        0.0651
     25 H           3.4469   -0.1095   -2.2959 H       1  UNL1        0.0831
     26 H           1.8786   -2.6927    2.2646 H       1  UNL1        0.0293
     27 H           1.9677   -3.6081    0.7513 H       1  UNL1        0.0293
     28 H           3.4612   -3.0744    1.5670 H       1  UNL1        0.0293
     29 H          -4.2284   -2.9787    0.3781 H       1  UNL1        0.1423
     30 H          -3.4852   -3.3094   -1.1727 H       1  UNL1        0.1423
@<TRIPOS>BOND
     1     1     2    2
     2     1     3    2
     3     1     4    1
     4     1     8    1
     5     4    14    1
     6     4    19    1
     7     5    14   ar
     8     5    15   ar
     9     6    14   ar
    10     6    17   ar
    11     7    11    1
    12     7    29    1
    13     7    30    1
    14     8     9   ar
    15     8    10   ar
    16     9    12   ar
    17     9    20    1
    18    10    13   ar
    19    10    21    1
    20    11    12   ar
    21    11    13   ar
    22    12    22    1
    23    13    23    1
    24    15    16   ar
    25    15    18    1
    26    16    17   ar
    27    16    24    1
    28    17    25    1
    29    18    26    1
    30    18    27    1
    31    18    28    1
