@<TRIPOS>MOLECULE
441397
 59 61 0 0 0
SMALL
GASTEIGER

@<TRIPOS>ATOM
      1 S           1.5499    0.9036   -1.3263 S.3     1  UNL1       -0.1273
      2 O          -0.3078    1.2354    2.6550 O.2     1  UNL1       -0.2734
      3 O          -3.2653    0.5782   -0.4681 O.3     1  UNL1       -0.4235
      4 O          -2.5402    2.7721   -0.5282 O.2     1  UNL1       -0.2486
      5 O           4.4932    1.9503    0.5207 O.2     1  UNL1       -0.2737
      6 O          -5.5177   -0.1757   -0.5563 O.3     1  UNL1       -0.3941
      7 O          -6.3616   -1.9962    0.3555 O.3     1  UNL1       -0.4340
      8 O          -4.7899   -0.7977    1.5408 O.2     1  UNL1       -0.2027
      9 N          -0.1402    1.8697    0.3879 N.am    1  UNL1       -0.2708
     10 N           2.6725    0.9305    1.5312 N.am    1  UNL1       -0.3002
     11 N           6.1700    0.1140    1.7240 N.3     1  UNL1       -0.3163
     12 C           1.1887    2.2282   -0.1165 C.3     1  UNL1        0.1005
     13 C          -0.2587    0.7343   -1.7389 C.3     1  UNL1        0.0417
     14 C          -0.9643    0.9625   -0.3849 C.3     1  UNL1        0.1382
     15 C           1.7145    2.0231    1.3108 C.3     1  UNL1        0.1277
     16 C           0.2603    1.6647    1.6765 C.2     1  UNL1        0.2402
     17 C          -0.5173   -0.6761   -2.2719 C.3     1  UNL1       -0.0484
     18 C          -0.5964    1.7737   -2.8164 C.3     1  UNL1       -0.0484
     19 C          -2.3289    1.5686   -0.4691 C.2     1  UNL1        0.3321
     20 C           4.0032    0.9884    1.1100 C.2     1  UNL1        0.2350
     21 C           4.7871   -0.2779    1.4366 C.3     1  UNL1        0.1079
     22 C          -4.6484    0.9765   -0.5438 C.3     1  UNL1        0.2498
     23 C           4.6945   -1.2780    0.3028 C.ar    1  UNL1       -0.0219
     24 C          -4.8780    1.7233   -1.8502 C.3     1  UNL1        0.0101
     25 C           3.6668   -2.2042    0.3028 C.ar    1  UNL1       -0.0566
     26 C           5.6399   -1.2425   -0.7065 C.ar    1  UNL1       -0.0566
     27 C           3.5817   -3.1254   -0.7413 C.ar    1  UNL1       -0.0614
     28 C           5.5548   -2.1636   -1.7505 C.ar    1  UNL1       -0.0614
     29 C          -5.4846   -0.9718    0.5488 C.2     1  UNL1        0.5131
     30 C           4.5257   -3.1051   -1.7677 C.ar    1  UNL1       -0.0617
     31 C          -6.4567   -2.9388    1.4285 C.3     1  UNL1        0.0931
     32 C          -5.4468   -4.0441    1.2048 C.3     1  UNL1       -0.0305
     33 H           1.2348    3.2508   -0.5020 H       1  UNL1        0.0640
     34 H          -1.0278    0.0301    0.1931 H       1  UNL1        0.0631
     35 H           2.0455    2.9472    1.7998 H       1  UNL1        0.0622
     36 H          -1.5813   -0.8156   -2.4951 H       1  UNL1        0.0244
     37 H          -0.2329   -1.4458   -1.5449 H       1  UNL1        0.0244
     38 H           0.0388   -0.8669   -3.1971 H       1  UNL1        0.0244
     39 H          -1.6441    1.6892   -3.1273 H       1  UNL1        0.0244
     40 H           0.0126    1.6292   -3.7169 H       1  UNL1        0.0244
     41 H          -0.4394    2.8009   -2.4691 H       1  UNL1        0.0244
     42 H           2.3628    0.0866    2.0076 H       1  UNL1        0.1496
     43 H           4.3862   -0.7281    2.3535 H       1  UNL1        0.0605
     44 H          -4.9088    1.6066    0.3156 H       1  UNL1        0.1205
     45 H           6.1838    0.7545    2.5173 H       1  UNL1        0.1192
     46 H           6.7008   -0.7050    2.0198 H       1  UNL1        0.1192
     47 H          -4.4306    2.7188   -1.8698 H       1  UNL1        0.0301
     48 H          -4.4640    1.1591   -2.6940 H       1  UNL1        0.0301
     49 H          -5.9510    1.8428   -2.0376 H       1  UNL1        0.0301
     50 H           2.9264   -2.2279    1.0968 H       1  UNL1        0.0621
     51 H           6.4414   -0.5107   -0.7317 H       1  UNL1        0.0621
     52 H           2.7796   -3.8576   -0.7554 H       1  UNL1        0.0618
     53 H           6.2870   -2.1452   -2.5526 H       1  UNL1        0.0618
     54 H           4.4586   -3.8214   -2.5814 H       1  UNL1        0.0618
     55 H          -7.4702   -3.3523    1.4068 H       1  UNL1        0.0696
     56 H          -6.3234   -2.4610    2.4057 H       1  UNL1        0.0696
     57 H          -5.5333   -4.8115    1.9792 H       1  UNL1        0.0262
     58 H          -5.5968   -4.5126    0.2265 H       1  UNL1        0.0262
     59 H          -4.4251   -3.6509    1.2159 H       1  UNL1        0.0262
@<TRIPOS>BOND
     1     1    12    1
     2     1    13    1
     3     2    16    2
     4     3    19    1
     5     3    22    1
     6     4    19    2
     7     5    20    2
     8     6    22    1
     9     6    29    1
    10     7    29    1
    11     7    31    1
    12     8    29    2
    13     9    12    1
    14     9    14    1
    15     9    16   am
    16    10    15    1
    17    10    20   am
    18    10    42    1
    19    11    21    1
    20    11    45    1
    21    11    46    1
    22    12    15    1
    23    12    33    1
    24    13    14    1
    25    13    17    1
    26    13    18    1
    27    14    19    1
    28    14    34    1
    29    15    16    1
    30    15    35    1
    31    17    36    1
    32    17    37    1
    33    17    38    1
    34    18    39    1
    35    18    40    1
    36    18    41    1
    37    20    21    1
    38    21    23    1
    39    21    43    1
    40    22    24    1
    41    22    44    1
    42    23    25   ar
    43    23    26   ar
    44    24    47    1
    45    24    48    1
    46    24    49    1
    47    25    27   ar
    48    25    50    1
    49    26    28   ar
    50    26    51    1
    51    27    30   ar
    52    27    52    1
    53    28    30   ar
    54    28    53    1
    55    30    54    1
    56    31    32    1
    57    31    55    1
    58    31    56    1
    59    32    57    1
    60    32    58    1
    61    32    59    1
