@<TRIPOS>MOLECULE
33478
 61 63 0 0 0
SMALL
GASTEIGER

@<TRIPOS>ATOM
      1 S           1.1522    0.2200    1.1017 S.3     1  UNL1       -0.1273
      2 O           0.6819   -3.1311   -1.7198 O.2     1  UNL1       -0.2734
      3 O          -3.0095   -0.8749   -1.2490 O.3     1  UNL1       -0.4260
      4 O          -2.6772   -2.2177    0.6020 O.2     1  UNL1       -0.2486
      5 O           4.3428   -1.4205    1.7098 O.2     1  UNL1       -0.2737
      6 O          -5.2606   -0.6147   -0.4490 O.3     1  UNL1       -0.4269
      7 O          -4.6676    1.4058   -1.3769 O.2     1  UNL1       -0.2502
      8 N          -0.0020   -1.9135    0.1828 N.am    1  UNL1       -0.2708
      9 N           3.1416   -1.7025   -0.2534 N.am    1  UNL1       -0.3002
     10 N           6.5939   -0.8154    0.2273 N.3     1  UNL1       -0.3163
     11 C           1.0184   -1.6030    1.1885 C.3     1  UNL1        0.1005
     12 C          -0.6454    0.3683    0.6367 C.3     1  UNL1        0.0417
     13 C          -0.8913   -0.8608   -0.2647 C.3     1  UNL1        0.1382
     14 C           2.0091   -2.4101    0.3383 C.3     1  UNL1        0.1277
     15 C           0.8261   -2.6395   -0.6234 C.2     1  UNL1        0.2402
     16 C          -0.8541    1.6744   -0.1320 C.3     1  UNL1       -0.0484
     17 C          -1.4685    0.3832    1.9319 C.3     1  UNL1       -0.0484
     18 C          -2.2810   -1.4120   -0.2292 C.2     1  UNL1        0.3319
     19 C           4.2342   -1.2585    0.4953 C.2     1  UNL1        0.2350
     20 C           5.2756   -0.5284   -0.3456 C.3     1  UNL1        0.1079
     21 C          -4.3770   -1.3056   -1.3472 C.3     1  UNL1        0.2388
     22 C           4.9811    0.9564   -0.4005 C.ar    1  UNL1       -0.0219
     23 C          -6.2810    1.3373    0.4569 C.3     1  UNL1        0.0595
     24 C           4.1684    1.4692   -1.4115 C.ar    1  UNL1       -0.0566
     25 C           5.5221    1.8108    0.5603 C.ar    1  UNL1       -0.0566
     26 C          -5.3112    0.7453   -0.5704 C.2     1  UNL1        0.3152
     27 C          -7.6922    0.7877    0.2105 C.3     1  UNL1       -0.0499
     28 C          -5.8047    0.9767    1.8706 C.3     1  UNL1       -0.0499
     29 C          -6.3092    2.8674    0.3138 C.3     1  UNL1       -0.0499
     30 C           3.8969    2.8365   -1.4621 C.ar    1  UNL1       -0.0614
     31 C           5.2504    3.1781    0.5098 C.ar    1  UNL1       -0.0614
     32 C           4.4378    3.6909   -0.5014 C.ar    1  UNL1       -0.0617
     33 H           0.7837   -2.0167    2.1734 H       1  UNL1        0.0640
     34 H          -0.6226   -0.6487   -1.3089 H       1  UNL1        0.0631
     35 H           2.3324   -3.3454    0.8121 H       1  UNL1        0.0622
     36 H          -0.6093    2.5485    0.4825 H       1  UNL1        0.0244
     37 H          -0.2383    1.7180   -1.0378 H       1  UNL1        0.0244
     38 H          -1.8997    1.7768   -0.4432 H       1  UNL1        0.0244
     39 H          -1.1817    1.2203    2.5796 H       1  UNL1        0.0244
     40 H          -2.5350    0.5032    1.7137 H       1  UNL1        0.0244
     41 H          -1.3545   -0.5405    2.5099 H       1  UNL1        0.0244
     42 H           3.1457   -1.5136   -1.2530 H       1  UNL1        0.1496
     43 H           5.2730   -0.9359   -1.3643 H       1  UNL1        0.0605
     44 H          -4.4589   -2.3811   -1.1538 H       1  UNL1        0.1168
     45 H          -4.7135   -1.1386   -2.3766 H       1  UNL1        0.1168
     46 H           6.7630   -1.8208    0.2040 H       1  UNL1        0.1192
     47 H           7.3171   -0.3990   -0.3591 H       1  UNL1        0.1192
     48 H           3.7397    0.8146   -2.1655 H       1  UNL1        0.0621
     49 H           6.1444    1.4418    1.3707 H       1  UNL1        0.0621
     50 H          -8.0200    0.9910   -0.8156 H       1  UNL1        0.0240
     51 H          -7.7333   -0.2977    0.3548 H       1  UNL1        0.0240
     52 H          -8.4194    1.2398    0.8942 H       1  UNL1        0.0240
     53 H          -6.4591    1.4157    2.6320 H       1  UNL1        0.0240
     54 H          -5.7921   -0.1071    2.0315 H       1  UNL1        0.0240
     55 H          -4.7885    1.3448    2.0490 H       1  UNL1        0.0240
     56 H          -6.9920    3.3225    1.0400 H       1  UNL1        0.0240
     57 H          -6.6383    3.1667   -0.6881 H       1  UNL1        0.0240
     58 H          -5.3145    3.2998    0.4736 H       1  UNL1        0.0240
     59 H           3.2632    3.2356   -2.2486 H       1  UNL1        0.0618
     60 H           5.6679    3.8432    1.2601 H       1  UNL1        0.0618
     61 H           4.2250    4.7552   -0.5398 H       1  UNL1        0.0618
@<TRIPOS>BOND
     1     1    11    1
     2     1    12    1
     3     2    15    2
     4     3    18    1
     5     3    21    1
     6     4    18    2
     7     5    19    2
     8     6    21    1
     9     6    26    1
    10     7    26    2
    11     8    11    1
    12     8    13    1
    13     8    15   am
    14     9    14    1
    15     9    19   am
    16     9    42    1
    17    10    20    1
    18    10    46    1
    19    10    47    1
    20    11    14    1
    21    11    33    1
    22    12    13    1
    23    12    16    1
    24    12    17    1
    25    13    18    1
    26    13    34    1
    27    14    15    1
    28    14    35    1
    29    16    36    1
    30    16    37    1
    31    16    38    1
    32    17    39    1
    33    17    40    1
    34    17    41    1
    35    19    20    1
    36    20    22    1
    37    20    43    1
    38    21    44    1
    39    21    45    1
    40    22    24   ar
    41    22    25   ar
    42    23    26    1
    43    23    27    1
    44    23    28    1
    45    23    29    1
    46    24    30   ar
    47    24    48    1
    48    25    31   ar
    49    25    49    1
    50    27    50    1
    51    27    51    1
    52    27    52    1
    53    28    53    1
    54    28    54    1
    55    28    55    1
    56    29    56    1
    57    29    57    1
    58    29    58    1
    59    30    32   ar
    60    30    59    1
    61    31    32   ar
    62    31    60    1
    63    32    61    1
