@<TRIPOS>MOLECULE
36921
 41 43 0 0 0
SMALL
GASTEIGER

@<TRIPOS>ATOM
      1 S           1.0628   -0.6982    1.0501 S.3     1  UNL1       -0.1273
      2 S          -2.6601   -3.3371   -0.8893 S.2     1  UNL1       -0.1048
      3 O           2.0325    2.1271   -2.1596 O.2     1  UNL1       -0.2734
      4 O           5.5672   -0.6606    0.0024 O.3     1  UNL1       -0.4793
      5 OXT         4.4427    0.4102    1.6712 O.2     1  UNL1       -0.2489
      6 O          -1.7230    1.5647    1.5369 O.2     1  UNL1       -0.2745
      7 O          -4.3303    2.4972   -0.1104 O.3     1  UNL1       -0.4799
      8 O          -5.1571    0.4895    0.5519 O.2     1  UNL1       -0.2498
      9 N           2.5876    1.0918   -0.1138 N.am    1  UNL1       -0.2708
     10 N          -0.5725    1.3850   -0.4701 N.am    1  UNL1       -0.3008
     11 C           1.5601    1.0615    0.9281 C.3     1  UNL1        0.1005
     12 C           2.3218   -1.2860   -0.1883 C.3     1  UNL1        0.0417
     13 CA          3.3163   -0.1225   -0.4001 C.3     1  UNL1        0.1379
     14 CA          0.6989    1.9436    0.0092 C.3     1  UNL1        0.1277
     15 C           1.8564    1.8249   -1.0014 C.2     1  UNL1        0.2402
     16 C           2.9736   -2.5717    0.3311 C.3     1  UNL1       -0.0484
     17 C           1.5697   -1.6013   -1.4923 C.3     1  UNL1       -0.0484
     18 C           4.4727   -0.0801    0.5522 C.2     1  UNL1        0.3269
     19 C          -1.6926    1.2418    0.3506 C.2     1  UNL1        0.2320
     20 C          -2.8931    0.6272   -0.3671 C.3     1  UNL1        0.1575
     21 C          -2.8249   -0.8795   -0.2673 C.ar    1  UNL1       -0.0179
     22 C          -4.2375    1.1584    0.1015 C.2     1  UNL1        0.3212
     23 C          -2.8696   -1.5671    0.9608 C.ar    1  UNL1       -0.0503
     24 C          -2.7130   -1.6901   -1.3548 C.ar    1  UNL1       -0.0199
     25 C          -2.7884   -2.9287    0.7687 C.ar    1  UNL1       -0.0240
     26 H           1.8771    1.5267    1.8655 H       1  UNL1        0.0640
     27 HA          3.6847   -0.0743   -1.4317 H       1  UNL1        0.0631
     28 HA          0.5722    2.9718    0.3690 H       1  UNL1        0.0622
     29 H           2.2405   -3.3811    0.4312 H       1  UNL1        0.0244
     30 H           3.7475   -2.9206   -0.3622 H       1  UNL1        0.0244
     31 H           3.4426   -2.4346    1.3118 H       1  UNL1        0.0244
     32 H           2.2687   -1.9487   -2.2623 H       1  UNL1        0.0244
     33 H           0.8274   -2.3954   -1.3487 H       1  UNL1        0.0244
     34 H           1.0489   -0.7297   -1.9011 H       1  UNL1        0.0244
     35 H          -0.6512    1.0804   -1.4375 H       1  UNL1        0.1496
     36 H          -2.8349    0.9017   -1.4310 H       1  UNL1        0.0559
     37 H           6.3360   -0.6433    0.6115 H       1  UNL1        0.2951
     38 H          -2.9558   -1.1138    1.9400 H       1  UNL1        0.0626
     39 H          -2.6572   -1.4176   -2.3995 H       1  UNL1        0.0696
     40 H          -2.7977   -3.7030    1.5228 H       1  UNL1        0.0693
     41 H          -5.2053    2.8499    0.1584 H       1  UNL1        0.2951
@<TRIPOS>BOND
     1     1    11    1
     2     1    12    1
     3     2    24   ar
     4     2    25   ar
     5     3    15    2
     6     4    18    1
     7     4    37    1
     8     5    18    2
     9     6    19    2
    10     7    22    1
    11     7    41    1
    12     8    22    2
    13     9    11    1
    14     9    13    1
    15     9    15   am
    16    10    14    1
    17    10    19   am
    18    10    35    1
    19    11    14    1
    20    11    26    1
    21    12    13    1
    22    12    16    1
    23    12    17    1
    24    13    18    1
    25    13    27    1
    26    14    15    1
    27    14    28    1
    28    16    29    1
    29    16    30    1
    30    16    31    1
    31    17    32    1
    32    17    33    1
    33    17    34    1
    34    19    20    1
    35    20    21    1
    36    20    22    1
    37    20    36    1
    38    21    23   ar
    39    21    24   ar
    40    23    25   ar
    41    23    38    1
    42    24    39    1
    43    25    40    1
