@<TRIPOS>MOLECULE
447865
 75 76 0 0 0
SMALL
GASTEIGER

@<TRIPOS>ATOM
      1 S          -8.0465    1.2392    0.1704 S.2     1  UNL1       -0.0802
      2 O           6.4284   -0.2349   -0.2384 O.3     1  UNL1       -0.3908
      3 O           1.2922    0.6930    0.6680 O.3     1  UNL1       -0.3903
      4 O           4.6057    1.9230   -1.3974 O.2     1  UNL1       -0.2964
      5 O          -1.0798    0.1343   -0.4663 O.3     1  UNL1       -0.4565
      6 O          -1.4961    1.3777   -2.3638 O.2     1  UNL1       -0.2507
      7 N          -6.0773   -0.1821    1.0563 N.ar    1  UNL1       -0.2449
      8 C           2.6138    2.5674   -0.1617 C.3     1  UNL1        0.0501
      9 C           4.5436    0.9569    0.7997 C.3     1  UNL1        0.0415
     10 C           5.0699   -0.3777    0.1940 C.3     1  UNL1        0.0670
     11 C           4.9500   -1.6502    1.0792 C.3     1  UNL1       -0.0171
     12 C           3.9766    1.8304   -0.3359 C.2     1  UNL1        0.1466
     13 C           1.4593    1.5577   -0.4587 C.3     1  UNL1        0.0771
     14 C           3.5021   -2.1538    1.2813 C.3     1  UNL1       -0.0478
     15 C           2.4841    3.2056    1.2316 C.3     1  UNL1       -0.0507
     16 C           2.6137    3.7274   -1.1874 C.3     1  UNL1       -0.0507
     17 C           5.6082    1.7822    1.5276 C.3     1  UNL1       -0.0533
     18 C           2.7736   -2.4921   -0.0258 C.3     1  UNL1       -0.0491
     19 C           5.6192   -1.5057    2.4513 C.3     1  UNL1       -0.0601
     20 C           0.0819    2.1841   -0.7199 C.3     1  UNL1        0.0718
     21 C           1.3898   -3.1057    0.2373 C.3     1  UNL1       -0.0320
     22 C          -0.9077    1.1941   -1.3055 C.2     1  UNL1        0.3102
     23 C           0.5793   -3.3144   -1.0265 C.2     1  UNL1       -0.0764
     24 C          -2.0858   -0.8477   -0.7973 C.3     1  UNL1        0.1276
     25 C          -1.6218   -2.2076   -0.2537 C.3     1  UNL1        0.0067
     26 C          -0.6913   -2.9039   -1.2126 C.2     1  UNL1       -0.0812
     27 C           1.2663   -4.0893   -2.1249 C.3     1  UNL1       -0.0438
     28 C          -3.3673   -0.4348   -0.1436 C.2     1  UNL1       -0.0304
     29 C          -3.2815   -0.3005    1.3542 C.3     1  UNL1       -0.0400
     30 C          -4.5225   -0.1683   -0.7861 C.2     1  UNL1       -0.0333
     31 C          -5.7786    0.2305   -0.2148 C.ar    1  UNL1        0.0714
     32 C          -6.6998    1.0006   -0.8643 C.ar    1  UNL1        0.0027
     33 C          -7.2618    0.2947    1.3691 C.ar    1  UNL1        0.0759
     34 C          -7.9398    0.0699    2.6646 C.3     1  UNL1       -0.0159
     35 H           3.7262    0.7224    1.4843 H       1  UNL1        0.0400
     36 H           4.5219   -0.5791   -0.7317 H       1  UNL1        0.0603
     37 H           5.5007   -2.4480    0.5600 H       1  UNL1        0.0323
     38 H           1.7381    0.9205   -1.3070 H       1  UNL1        0.0608
     39 H           3.5282   -3.0568    1.9053 H       1  UNL1        0.0269
     40 H           2.9213   -1.4107    1.8402 H       1  UNL1        0.0269
     41 H           1.5320    3.7376    1.3361 H       1  UNL1        0.0240
     42 H           3.2839    3.9357    1.4007 H       1  UNL1        0.0240
     43 H           2.5419    2.4778    2.0457 H       1  UNL1        0.0240
     44 H           3.5302    4.3252   -1.1081 H       1  UNL1        0.0240
     45 H           1.7749    4.4139   -1.0295 H       1  UNL1        0.0240
     46 H           2.5566    3.3512   -2.2155 H       1  UNL1        0.0240
     47 H           6.3758    2.1518    0.8385 H       1  UNL1        0.0237
     48 H           5.1642    2.6619    2.0032 H       1  UNL1        0.0237
     49 H           6.1034    1.2075    2.3134 H       1  UNL1        0.0237
     50 H           3.3909   -3.1878   -0.6062 H       1  UNL1        0.0268
     51 H           2.6429   -1.5866   -0.6278 H       1  UNL1        0.0268
     52 H           6.6651   -1.1989    2.3617 H       1  UNL1        0.0233
     53 H           5.0942   -0.7798    3.0801 H       1  UNL1        0.0233
     54 H           5.6112   -2.4639    2.9831 H       1  UNL1        0.0233
     55 H          -0.3657    2.5993    0.1901 H       1  UNL1        0.0403
     56 H           0.1524    2.9924   -1.4539 H       1  UNL1        0.0403
     57 H           1.5148   -4.0767    0.7329 H       1  UNL1        0.0310
     58 H           0.8605   -2.4629    0.9462 H       1  UNL1        0.0310
     59 H           6.9964   -0.1499    0.5442 H       1  UNL1        0.2098
     60 H           0.8531    1.1868    1.3804 H       1  UNL1        0.2098
     61 H          -2.2106   -0.9068   -1.8864 H       1  UNL1        0.0785
     62 H          -2.4842   -2.8755   -0.1263 H       1  UNL1        0.0346
     63 H          -1.1629   -2.0939    0.7323 H       1  UNL1        0.0346
     64 H          -1.1574   -3.1351   -2.1709 H       1  UNL1        0.0573
     65 H           2.0722   -3.4974   -2.5696 H       1  UNL1        0.0274
     66 H           1.6890   -5.0178   -1.7267 H       1  UNL1        0.0274
     67 H           0.5800   -4.3668   -2.9323 H       1  UNL1        0.0274
     68 H          -2.2529   -0.1380    1.6945 H       1  UNL1        0.0276
     69 H          -3.8365    0.5653    1.7294 H       1  UNL1        0.0276
     70 H          -3.6444   -1.2104    1.8436 H       1  UNL1        0.0276
     71 H          -4.5035   -0.2343   -1.8733 H       1  UNL1        0.0640
     72 H          -6.6676    1.4280   -1.8570 H       1  UNL1        0.0715
     73 H          -7.3167   -0.5454    3.3219 H       1  UNL1        0.0298
     74 H          -8.1307    1.0177    3.1781 H       1  UNL1        0.0298
     75 H          -8.8922   -0.4514    2.5246 H       1  UNL1        0.0298
@<TRIPOS>BOND
     1     1    32   ar
     2     1    33   ar
     3     2    10    1
     4     2    59    1
     5     3    13    1
     6     3    60    1
     7     4    12    2
     8     5    22    1
     9     5    24    1
    10     6    22    2
    11     7    31   ar
    12     7    33   ar
    13     8    12    1
    14     8    13    1
    15     8    15    1
    16     8    16    1
    17     9    10    1
    18     9    12    1
    19     9    17    1
    20     9    35    1
    21    10    11    1
    22    10    36    1
    23    11    14    1
    24    11    19    1
    25    11    37    1
    26    13    20    1
    27    13    38    1
    28    14    18    1
    29    14    39    1
    30    14    40    1
    31    15    41    1
    32    15    42    1
    33    15    43    1
    34    16    44    1
    35    16    45    1
    36    16    46    1
    37    17    47    1
    38    17    48    1
    39    17    49    1
    40    18    21    1
    41    18    50    1
    42    18    51    1
    43    19    52    1
    44    19    53    1
    45    19    54    1
    46    20    22    1
    47    20    55    1
    48    20    56    1
    49    21    23    1
    50    21    57    1
    51    21    58    1
    52    23    26    2
    53    23    27    1
    54    24    25    1
    55    24    28    1
    56    24    61    1
    57    25    26    1
    58    25    62    1
    59    25    63    1
    60    26    64    1
    61    27    65    1
    62    27    66    1
    63    27    67    1
    64    28    29    1
    65    28    30    2
    66    29    68    1
    67    29    69    1
    68    29    70    1
    69    30    31    1
    70    30    71    1
    71    31    32   ar
    72    32    72    1
    73    33    34    1
    74    34    73    1
    75    34    74    1
    76    34    75    1
