@<TRIPOS>MOLECULE
3000540
 61 62 0 0 0
SMALL
GASTEIGER

@<TRIPOS>ATOM
      1 S           4.7809    1.7403   -1.2584 S.3     1  UNL1       -0.1305
      2 O           3.2117    0.7840    0.7567 O.3     1  UNL1       -0.3556
      3 O           2.2330   -1.9377    0.9435 O.3     1  UNL1       -0.3865
      4 O           3.8462   -2.8852   -1.1080 O.3     1  UNL1       -0.3865
      5 O           6.0133   -1.0303   -0.8251 O.3     1  UNL1       -0.3857
      6 O          -0.5153    2.3133    1.8289 O.3     1  UNL1       -0.3901
      7 O          -1.5821   -0.5276    1.9424 O.2     1  UNL1       -0.2741
      8 N          -3.2437   -1.9849    0.4649 N.3     1  UNL1       -0.2943
      9 N          -0.3025    0.0235    0.0777 N.am    1  UNL1       -0.3061
     10 C          -4.7727   -0.3016    0.0333 C.3     1  UNL1       -0.0264
     11 C          -2.4606   -0.9572   -0.2310 C.3     1  UNL1        0.0873
     12 C          -3.4508    0.1563   -0.5801 C.3     1  UNL1       -0.0248
     13 C          -4.6324   -1.8173    0.0309 C.3     1  UNL1        0.0022
     14 C           2.1114    0.2727   -0.0117 C.3     1  UNL1        0.1091
     15 C           0.8394    0.5697    0.7763 C.3     1  UNL1        0.0774
     16 C           2.2848   -1.2239   -0.2942 C.3     1  UNL1        0.1115
     17 C          -5.9946    0.1914   -0.7228 C.3     1  UNL1       -0.0492
     18 C           3.6287   -1.4822   -0.9793 C.3     1  UNL1        0.1125
     19 C          -1.4171   -0.4790    0.7263 C.2     1  UNL1        0.2306
     20 C           4.7650   -0.8712   -0.1594 C.3     1  UNL1        0.1188
     21 C           0.6613    2.0726    1.0611 C.3     1  UNL1        0.0732
     22 C           4.5024    0.6085    0.1572 C.3     1  UNL1        0.1327
     23 C          -2.7523   -3.3357    0.2292 C.3     1  UNL1       -0.0120
     24 C          -6.0290    1.7169   -0.7995 C.3     1  UNL1       -0.0556
     25 C           0.5692    2.9066   -0.2118 C.3     1  UNL1       -0.0371
     26 C          -7.2665    2.2110   -1.5313 C.3     1  UNL1       -0.0653
     27 C           4.9723    3.2672   -0.3155 C.3     1  UNL1       -0.0156
     28 H          -4.8221    0.0546    1.0724 H       1  UNL1        0.0314
     29 H          -2.0019   -1.3411   -1.1513 H       1  UNL1        0.0558
     30 H          -3.5363    0.2301   -1.6715 H       1  UNL1        0.0288
     31 H          -3.1541    1.1385   -0.1957 H       1  UNL1        0.0288
     32 H          -4.7976   -2.2278   -0.9737 H       1  UNL1        0.0429
     33 H          -5.3338   -2.2889    0.7267 H       1  UNL1        0.0429
     34 H           2.0769    0.7880   -0.9783 H       1  UNL1        0.0643
     35 H           0.8870    0.0798    1.7580 H       1  UNL1        0.0550
     36 H           1.4781   -1.6204   -0.9195 H       1  UNL1        0.0647
     37 H          -6.9009   -0.1752   -0.2252 H       1  UNL1        0.0268
     38 H          -6.0044   -0.2228   -1.7390 H       1  UNL1        0.0268
     39 H           3.6311   -1.0667   -1.9937 H       1  UNL1        0.0647
     40 H           4.8518   -1.4295    0.7813 H       1  UNL1        0.0655
     41 H          -0.3107    0.0843   -0.9368 H       1  UNL1        0.1492
     42 H           1.5043    2.4339    1.6614 H       1  UNL1        0.0610
     43 H           5.2396    0.9036    0.9125 H       1  UNL1        0.0740
     44 H          -1.7209   -3.4384    0.5835 H       1  UNL1        0.0391
     45 H          -2.7797   -3.6095   -0.8316 H       1  UNL1        0.0391
     46 H          -3.3536   -4.0623    0.7863 H       1  UNL1        0.0391
     47 H          -6.0169    2.1411    0.2113 H       1  UNL1        0.0263
     48 H          -5.1462    2.0995   -1.3230 H       1  UNL1        0.0263
     49 H           1.4901    2.8776   -0.7989 H       1  UNL1        0.0255
     50 H           0.3750    3.9560    0.0387 H       1  UNL1        0.0255
     51 H          -0.2661    2.5867   -0.8437 H       1  UNL1        0.0255
     52 H           2.8106   -1.4876    1.5825 H       1  UNL1        0.2100
     53 H           3.1035   -3.2504   -1.6184 H       1  UNL1        0.2100
     54 H          -7.2922    1.8327   -2.5582 H       1  UNL1        0.0230
     55 H          -7.2718    3.3048   -1.5719 H       1  UNL1        0.0230
     56 H          -8.1794    1.8860   -1.0221 H       1  UNL1        0.0230
     57 H           6.6968   -0.6187   -0.2691 H       1  UNL1        0.2100
     58 H          -0.5506    3.2646    2.0272 H       1  UNL1        0.2098
     59 H           5.1302    4.0985   -1.0078 H       1  UNL1        0.0341
     60 H           5.8383    3.2036    0.3486 H       1  UNL1        0.0341
     61 H           4.0724    3.4733    0.2699 H       1  UNL1        0.0341
@<TRIPOS>BOND
     1     1    22    1
     2     1    27    1
     3     2    14    1
     4     2    22    1
     5     3    16    1
     6     3    52    1
     7     4    18    1
     8     4    53    1
     9     5    20    1
    10     5    57    1
    11     6    21    1
    12     6    58    1
    13     7    19    2
    14     8    11    1
    15     8    13    1
    16     8    23    1
    17     9    15    1
    18     9    19   am
    19     9    41    1
    20    10    12    1
    21    10    13    1
    22    10    17    1
    23    10    28    1
    24    11    12    1
    25    11    19    1
    26    11    29    1
    27    12    30    1
    28    12    31    1
    29    13    32    1
    30    13    33    1
    31    14    15    1
    32    14    16    1
    33    14    34    1
    34    15    21    1
    35    15    35    1
    36    16    18    1
    37    16    36    1
    38    17    24    1
    39    17    37    1
    40    17    38    1
    41    18    20    1
    42    18    39    1
    43    20    22    1
    44    20    40    1
    45    21    25    1
    46    21    42    1
    47    22    43    1
    48    23    44    1
    49    23    45    1
    50    23    46    1
    51    24    26    1
    52    24    47    1
    53    24    48    1
    54    25    49    1
    55    25    50    1
    56    25    51    1
    57    26    54    1
    58    26    55    1
    59    26    56    1
    60    27    59    1
    61    27    60    1
    62    27    61    1
