@<TRIPOS>MOLECULE
115163
 63 65 0 0 0
SMALL
GASTEIGER

@<TRIPOS>ATOM
      1 S           1.1389    1.1139    0.4864 S.3     1  UNL1       -0.1270
      2 O           0.8700   -3.1158   -0.7175 O.2     1  UNL1       -0.2731
      3 O          -2.9223   -1.0411   -1.2184 O.3     1  UNL1       -0.4260
      4 O          -2.5729   -1.4925    1.0205 O.2     1  UNL1       -0.2486
      5 O          -5.0927   -0.8052   -0.2139 O.3     1  UNL1       -0.4269
      6 O          -5.3573    0.8841   -1.7537 O.2     1  UNL1       -0.2502
      7 N           0.0954   -1.2606    0.5188 N.am    1  UNL1       -0.2703
      8 N           3.1652   -1.0619   -0.0066 N.2     1  UNL1       -0.2611
      9 N           5.4665   -0.4520    0.0165 N.pl3   1  UNL1       -0.3214
     10 C           1.0803   -0.5185    1.3113 C.3     1  UNL1        0.1045
     11 C          -0.6531    0.9743   -0.0022 C.3     1  UNL1        0.0417
     12 C          -0.8280   -0.5259   -0.3221 C.3     1  UNL1        0.1382
     13 C           2.1219   -1.5550    0.8679 C.3     1  UNL1        0.1557
     14 C           0.9702   -2.2128    0.0820 C.2     1  UNL1        0.2445
     15 C          -0.9006    1.8407   -1.2385 C.3     1  UNL1       -0.0484
     16 C          -1.5032    1.4785    1.1720 C.3     1  UNL1       -0.0484
     17 C          -2.1936   -1.0792   -0.0669 C.2     1  UNL1        0.3319
     18 C           4.3128   -0.8974    0.5753 C.2     1  UNL1        0.0793
     19 C           5.5231   -0.1414   -1.4106 C.3     1  UNL1        0.0130
     20 C           6.6798   -0.3234    0.8186 C.3     1  UNL1        0.0130
     21 C           6.5103    0.9622   -1.7865 C.3     1  UNL1       -0.0372
     22 C           6.7913    1.0925    1.3777 C.3     1  UNL1       -0.0372
     23 C           6.4133    2.2150   -0.9158 C.3     1  UNL1       -0.0516
     24 C           7.2579    2.1284    0.3561 C.3     1  UNL1       -0.0516
     25 C          -4.2682   -1.5382   -1.1346 C.3     1  UNL1        0.2388
     26 C          -6.4204    1.0610    0.4392 C.3     1  UNL1        0.0595
     27 C          -5.5746    0.3962   -0.6512 C.2     1  UNL1        0.3152
     28 C          -6.9375    2.4169   -0.0676 C.3     1  UNL1       -0.0499
     29 C          -5.5531    1.2912    1.6843 C.3     1  UNL1       -0.0499
     30 C          -7.6195    0.1660    0.7795 C.3     1  UNL1       -0.0499
     31 H           0.8426   -0.5044    2.3788 H       1  UNL1        0.0643
     32 H          -0.5466   -0.7469   -1.3611 H       1  UNL1        0.0631
     33 H           2.4700   -2.2128    1.6755 H       1  UNL1        0.0669
     34 H          -0.7078    2.9004   -1.0347 H       1  UNL1        0.0244
     35 H          -0.2674    1.5403   -2.0814 H       1  UNL1        0.0244
     36 H          -1.9428    1.7555   -1.5672 H       1  UNL1        0.0244
     37 H          -1.2628    2.5179    1.4250 H       1  UNL1        0.0244
     38 H          -2.5656    1.4530    0.9130 H       1  UNL1        0.0244
     39 H          -1.3695    0.8741    2.0759 H       1  UNL1        0.0244
     40 H           4.4213   -1.1145    1.6533 H       1  UNL1        0.0995
     41 H           4.5328    0.1746   -1.7623 H       1  UNL1        0.0464
     42 H           5.7742   -1.0541   -1.9640 H       1  UNL1        0.0464
     43 H           6.6473   -1.0333    1.6547 H       1  UNL1        0.0464
     44 H           7.5697   -0.5941    0.2386 H       1  UNL1        0.0464
     45 H           7.5364    0.5752   -1.7794 H       1  UNL1        0.0280
     46 H           6.3072    1.2440   -2.8277 H       1  UNL1        0.0280
     47 H           5.8312    1.4089    1.8042 H       1  UNL1        0.0280
     48 H           7.5136    1.0863    2.2033 H       1  UNL1        0.0280
     49 H           6.7887    3.0640   -1.5009 H       1  UNL1        0.0266
     50 H           5.3688    2.4412   -0.6712 H       1  UNL1        0.0266
     51 H           7.2578    3.1123    0.8416 H       1  UNL1        0.0266
     52 H           8.3009    1.9221    0.0848 H       1  UNL1        0.0266
     53 H          -4.7068   -1.5211   -2.1387 H       1  UNL1        0.1168
     54 H          -4.2454   -2.5855   -0.8128 H       1  UNL1        0.1168
     55 H          -7.5413    2.9221    0.6945 H       1  UNL1        0.0240
     56 H          -7.5601    2.2954   -0.9617 H       1  UNL1        0.0240
     57 H          -6.1095    3.0840   -0.3346 H       1  UNL1        0.0240
     58 H          -4.7134    1.9562    1.4588 H       1  UNL1        0.0240
     59 H          -5.1380    0.3552    2.0740 H       1  UNL1        0.0240
     60 H          -6.1353    1.7544    2.4889 H       1  UNL1        0.0240
     61 H          -7.2991   -0.7939    1.2001 H       1  UNL1        0.0240
     62 H          -8.2129   -0.0538   -0.1154 H       1  UNL1        0.0240
     63 H          -8.2774    0.6450    1.5130 H       1  UNL1        0.0240
@<TRIPOS>BOND
     1     1    10    1
     2     1    11    1
     3     2    14    2
     4     3    17    1
     5     3    25    1
     6     4    17    2
     7     5    25    1
     8     5    27    1
     9     6    27    2
    10     7    10    1
    11     7    12    1
    12     7    14   am
    13     8    13    1
    14     8    18    2
    15     9    18    1
    16     9    19    1
    17     9    20    1
    18    10    13    1
    19    10    31    1
    20    11    12    1
    21    11    15    1
    22    11    16    1
    23    12    17    1
    24    12    32    1
    25    13    14    1
    26    13    33    1
    27    15    34    1
    28    15    35    1
    29    15    36    1
    30    16    37    1
    31    16    38    1
    32    16    39    1
    33    18    40    1
    34    19    21    1
    35    19    41    1
    36    19    42    1
    37    20    22    1
    38    20    43    1
    39    20    44    1
    40    21    23    1
    41    21    45    1
    42    21    46    1
    43    22    24    1
    44    22    47    1
    45    22    48    1
    46    23    24    1
    47    23    49    1
    48    23    50    1
    49    24    51    1
    50    24    52    1
    51    25    53    1
    52    25    54    1
    53    26    27    1
    54    26    28    1
    55    26    29    1
    56    26    30    1
    57    28    55    1
    58    28    56    1
    59    28    57    1
    60    29    58    1
    61    29    59    1
    62    29    60    1
    63    30    61    1
    64    30    62    1
    65    30    63    1
