@<TRIPOS>MOLECULE
3000226
 85 88 0 0 0
SMALL
GASTEIGER

@<TRIPOS>ATOM
      1 O          -1.2813    1.9280   -1.3486 O.3     1  UNL1       -0.3915
      2 O           2.5983   -3.0258    0.2260 O.3     1  UNL1       -0.4570
      3 O          -6.2671    1.4292   -1.7484 O.3     1  UNL1       -0.3915
      4 O           5.0934   -0.9052   -1.5051 O.3     1  UNL1       -0.4773
      5 O           5.0105   -1.4881    0.6869 O.2     1  UNL1       -0.2455
      6 O           1.8775   -4.9816   -0.7702 O.2     1  UNL1       -0.2511
      7 C          -1.7251   -0.9013   -0.1012 C.3     1  UNL1       -0.0203
      8 C          -2.0082    0.5248    0.5269 C.3     1  UNL1       -0.0034
      9 C          -0.1844   -1.2595    0.1400 C.3     1  UNL1       -0.0160
     10 C          -3.5590    0.9120    0.6851 C.3     1  UNL1       -0.0232
     11 C          -4.5174   -0.1860    0.1094 C.3     1  UNL1       -0.0303
     12 C           0.7026   -0.1379   -0.4719 C.3     1  UNL1       -0.0073
     13 C          -2.6500   -1.8998    0.6475 C.3     1  UNL1       -0.0465
     14 C          -1.0342    1.6265    0.0201 C.3     1  UNL1        0.0596
     15 C          -4.1522   -1.6063    0.5624 C.3     1  UNL1       -0.0489
     16 C           0.4488    1.2196    0.1811 C.3     1  UNL1       -0.0194
     17 C           0.3663   -2.5016   -0.6167 C.3     1  UNL1       -0.0052
     18 C          -3.9357    2.2585    0.0093 C.3     1  UNL1       -0.0447
     19 C          -6.0263    0.1565    0.3092 C.3     1  UNL1       -0.0145
     20 C          -2.0549   -0.9485   -1.6238 C.3     1  UNL1       -0.0587
     21 C           2.0670   -0.7763   -0.4835 C.2     1  UNL1       -0.0159
     22 C           1.8893   -2.2601   -0.7359 C.3     1  UNL1        0.1257
     23 C           0.1368   -1.4868    1.6579 C.3     1  UNL1       -0.0584
     24 C          -3.7931    1.0713    2.2220 C.3     1  UNL1       -0.0589
     25 C          -5.4169    2.6342    0.1504 C.3     1  UNL1       -0.0261
     26 C          -6.3547    1.5261   -0.3253 C.3     1  UNL1        0.0581
     27 C          -6.9526   -0.9239   -0.2697 C.3     1  UNL1       -0.0598
     28 C           3.2355   -0.1711   -0.2411 C.2     1  UNL1        0.0397
     29 C           3.3158    1.2913    0.1374 C.3     1  UNL1       -0.0174
     30 C           4.5171   -0.9281   -0.2815 C.2     1  UNL1        0.3329
     31 C           2.5072   -4.3845    0.0924 C.2     1  UNL1        0.3045
     32 C           4.7410    1.7702    0.4452 C.3     1  UNL1       -0.0303
     33 C           3.3013   -5.0587    1.1699 C.3     1  UNL1        0.0333
     34 C           4.7832    3.2029    0.9018 C.2     1  UNL1       -0.0850
     35 C           5.0188    4.3020    0.1605 C.2     1  UNL1       -0.0796
     36 C           5.0377    5.6636    0.8031 C.3     1  UNL1       -0.0440
     37 C           5.2651    4.3144   -1.3217 C.3     1  UNL1       -0.0440
     38 H          -1.6849    0.4194    1.5684 H       1  UNL1        0.0336
     39 H          -4.3941   -0.1962   -0.9748 H       1  UNL1        0.0310
     40 H           0.4742   -0.0063   -1.5370 H       1  UNL1        0.0353
     41 H          -2.4037   -1.9013    1.7157 H       1  UNL1        0.0271
     42 H          -2.4632   -2.9248    0.3028 H       1  UNL1        0.0271
     43 H          -1.1924    2.5461    0.5947 H       1  UNL1        0.0596
     44 H          -4.5938   -2.3259   -0.1389 H       1  UNL1        0.0268
     45 H          -4.6083   -1.8224    1.5368 H       1  UNL1        0.0268
     46 H           0.6894    1.2054    1.2487 H       1  UNL1        0.0296
     47 H           1.0153    2.0112   -0.3099 H       1  UNL1        0.0296
     48 H          -0.0469   -2.5709   -1.6279 H       1  UNL1        0.0310
     49 H           0.0876   -3.4221   -0.0954 H       1  UNL1        0.0310
     50 H          -3.6918    2.2187   -1.0576 H       1  UNL1        0.0271
     51 H          -3.3472    3.0790    0.4357 H       1  UNL1        0.0271
     52 H          -6.2462    0.2114    1.3815 H       1  UNL1        0.0326
     53 H          -2.5151   -1.9038   -1.9006 H       1  UNL1        0.0235
     54 H          -2.7217   -0.1475   -1.9454 H       1  UNL1        0.0235
     55 H          -1.1828   -0.8380   -2.2703 H       1  UNL1        0.0235
     56 H           2.2388   -2.5136   -1.7448 H       1  UNL1        0.0782
     57 H           1.2098   -1.5688    1.8575 H       1  UNL1        0.0235
     58 H          -0.2162   -0.6827    2.3052 H       1  UNL1        0.0235
     59 H          -0.3081   -2.4213    2.0169 H       1  UNL1        0.0235
     60 H          -3.5730    0.1415    2.7583 H       1  UNL1        0.0235
     61 H          -3.1404    1.8524    2.6306 H       1  UNL1        0.0235
     62 H          -4.8155    1.3501    2.4848 H       1  UNL1        0.0235
     63 H          -5.6444    2.8914    1.1903 H       1  UNL1        0.0290
     64 H          -5.5946    3.5411   -0.4411 H       1  UNL1        0.0290
     65 H          -7.3885    1.8047   -0.0917 H       1  UNL1        0.0596
     66 H          -6.7137   -1.1448   -1.3152 H       1  UNL1        0.0233
     67 H          -6.8755   -1.8554    0.2999 H       1  UNL1        0.0233
     68 H          -7.9991   -0.6037   -0.2203 H       1  UNL1        0.0233
     69 H          -0.6946    2.6607   -1.6017 H       1  UNL1        0.2098
     70 H          -5.3418    1.3039   -2.0104 H       1  UNL1        0.2098
     71 H           2.9553    1.9005   -0.6979 H       1  UNL1        0.0318
     72 H           2.7414    1.4758    1.0479 H       1  UNL1        0.0318
     73 H           5.3929    1.6338   -0.4248 H       1  UNL1        0.0311
     74 H           5.1815    1.1682    1.2505 H       1  UNL1        0.0311
     75 H           2.9043   -4.7817    2.1497 H       1  UNL1        0.0342
     76 H           4.3534   -4.7751    1.0862 H       1  UNL1        0.0342
     77 H           3.2217   -6.1434    1.0549 H       1  UNL1        0.0342
     78 H           5.9424   -1.3963   -1.5204 H       1  UNL1        0.2954
     79 H           4.5971    3.3343    1.9671 H       1  UNL1        0.0572
     80 H           4.8593    5.6190    1.8827 H       1  UNL1        0.0274
     81 H           4.2625    6.3008    0.3648 H       1  UNL1        0.0274
     82 H           6.0104    6.1417    0.6475 H       1  UNL1        0.0274
     83 H           5.1527    3.3305   -1.7839 H       1  UNL1        0.0274
     84 H           6.2787    4.6706   -1.5328 H       1  UNL1        0.0274
     85 H           4.5534    4.9838   -1.8165 H       1  UNL1        0.0274
@<TRIPOS>BOND
     1     1    14    1
     2     1    69    1
     3     2    22    1
     4     2    31    1
     5     3    26    1
     6     3    70    1
     7     4    30    1
     8     4    78    1
     9     5    30    2
    10     6    31    2
    11     7     8    1
    12     7     9    1
    13     7    13    1
    14     7    20    1
    15     8    10    1
    16     8    14    1
    17     8    38    1
    18     9    12    1
    19     9    17    1
    20     9    23    1
    21    10    11    1
    22    10    18    1
    23    10    24    1
    24    11    15    1
    25    11    19    1
    26    11    39    1
    27    12    16    1
    28    12    21    1
    29    12    40    1
    30    13    15    1
    31    13    41    1
    32    13    42    1
    33    14    16    1
    34    14    43    1
    35    15    44    1
    36    15    45    1
    37    16    46    1
    38    16    47    1
    39    17    22    1
    40    17    48    1
    41    17    49    1
    42    18    25    1
    43    18    50    1
    44    18    51    1
    45    19    26    1
    46    19    27    1
    47    19    52    1
    48    20    53    1
    49    20    54    1
    50    20    55    1
    51    21    22    1
    52    21    28    2
    53    22    56    1
    54    23    57    1
    55    23    58    1
    56    23    59    1
    57    24    60    1
    58    24    61    1
    59    24    62    1
    60    25    26    1
    61    25    63    1
    62    25    64    1
    63    26    65    1
    64    27    66    1
    65    27    67    1
    66    27    68    1
    67    28    29    1
    68    28    30    1
    69    29    32    1
    70    29    71    1
    71    29    72    1
    72    31    33    1
    73    32    34    1
    74    32    73    1
    75    32    74    1
    76    33    75    1
    77    33    76    1
    78    33    77    1
    79    34    35    2
    80    34    79    1
    81    35    36    1
    82    35    37    1
    83    36    80    1
    84    36    81    1
    85    36    82    1
    86    37    83    1
    87    37    84    1
    88    37    85    1
