@<TRIPOS>MOLECULE
123966
 87 89 0 0 0
SMALL
GASTEIGER

@<TRIPOS>ATOM
      1 O           0.2023    1.0250    1.0554 O.3     1  UNL1       -0.3401
      2 O          -1.6044    1.0878   -0.4340 O.3     1  UNL1       -0.3405
      3 O          -4.3213    0.1725    0.3852 O.3     1  UNL1       -0.3401
      4 O           2.6470    0.0391   -1.5213 O.3     1  UNL1       -0.3405
      5 O          -6.6012    0.1440   -0.2644 O.3     1  UNL1       -0.3405
      6 O           4.4726   -0.1052   -0.0157 O.3     1  UNL1       -0.3401
      7 O          -3.3237    3.3889    1.7401 O.3     1  UNL1       -0.3864
      8 O          -2.0917    0.0036    2.2097 O.3     1  UNL1       -0.3841
      9 O           1.8539    3.3614    0.7991 O.3     1  UNL1       -0.3864
     10 O           4.5867    2.6955    0.1180 O.3     1  UNL1       -0.3841
     11 O          -4.9544   -1.3118    2.6811 O.3     1  UNL1       -0.3841
     12 O          -6.3847   -3.5590    1.5498 O.3     1  UNL1       -0.3864
     13 O          -6.5769   -3.3903   -1.3116 O.3     1  UNL1       -0.3865
     14 O          -3.9214    3.5037   -1.9063 O.3     1  UNL1       -0.3924
     15 O           0.9943   -2.1239   -1.7287 O.3     1  UNL1       -0.3924
     16 O          -7.1773    0.5335   -2.9043 O.3     1  UNL1       -0.3924
     17 O           7.5726   -1.1972   -1.6072 O.3     1  UNL1       -0.3861
     18 O           6.1933   -3.2724   -0.4718 O.3     1  UNL1       -0.3869
     19 O           8.1123   -1.1036    1.0013 O.3     1  UNL1       -0.3819
     20 O           4.1799   -4.0894    1.2242 O.3     1  UNL1       -0.3924
     21 O           9.8198    0.8493    0.4066 O.2     1  UNL1       -0.2982
     22 C          -3.9118    1.5401    0.2859 C.3     1  UNL1        0.1184
     23 C           1.1362    1.2176   -0.0044 C.3     1  UNL1        0.1184
     24 C          -3.3883    1.9683    1.6630 C.3     1  UNL1        0.1144
     25 C          -1.9939    1.4035    1.9438 C.3     1  UNL1        0.1341
     26 C          -1.0521    1.6367    0.7607 C.3     1  UNL1        0.1884
     27 C          -2.8610    1.6504   -0.8325 C.3     1  UNL1        0.1134
     28 C           2.3111    2.0316    0.5415 C.3     1  UNL1        0.1144
     29 C           1.6066   -0.1363   -0.5530 C.3     1  UNL1        0.1134
     30 C           3.4482    2.0829   -0.4769 C.3     1  UNL1        0.1341
     31 C          -5.6752    0.0654    0.8213 C.3     1  UNL1        0.1884
     32 C           3.8059    0.6890   -0.9951 C.3     1  UNL1        0.1884
     33 C          -5.9277   -1.1956    1.6491 C.3     1  UNL1        0.1341
     34 C          -5.9000   -2.4538    0.7835 C.3     1  UNL1        0.1141
     35 C          -6.8033   -2.2852   -0.4398 C.3     1  UNL1        0.1119
     36 C          -6.5127   -0.9650   -1.1664 C.3     1  UNL1        0.1130
     37 C          -2.6848    3.0686   -1.3718 C.3     1  UNL1        0.0730
     38 C           0.4786   -0.8978   -1.2439 C.3     1  UNL1        0.0730
     39 C           5.3971   -1.0111   -0.6272 C.3     1  UNL1        0.1183
     40 C          -7.5058   -0.7014   -2.2951 C.3     1  UNL1        0.0730
     41 C           6.7609   -0.3234   -0.8133 C.3     1  UNL1        0.1162
     42 C           5.4126   -2.2896    0.2238 C.3     1  UNL1        0.1069
     43 C           7.5201    0.0725    0.4603 C.3     1  UNL1        0.1382
     44 C           4.0338   -2.8981    0.4559 C.3     1  UNL1        0.0727
     45 C           8.6278    1.0790    0.2259 C.2     1  UNL1        0.1512
     46 H          -4.7767    2.1530    0.0010 H       1  UNL1        0.0651
     47 H           0.6965    1.7950   -0.8313 H       1  UNL1        0.0651
     48 H          -4.0640    1.6346    2.4577 H       1  UNL1        0.0648
     49 H          -1.5584    1.8679    2.8367 H       1  UNL1        0.0671
     50 H          -0.8808    2.7120    0.6344 H       1  UNL1        0.0938
     51 H          -3.2076    1.0254   -1.6661 H       1  UNL1        0.0647
     52 H           2.6580    1.6323    1.5016 H       1  UNL1        0.0648
     53 H           1.9801   -0.7620    0.2634 H       1  UNL1        0.0647
     54 H           3.1422    2.7110   -1.3235 H       1  UNL1        0.0671
     55 H          -5.9102    0.9095    1.4814 H       1  UNL1        0.0938
     56 H           4.4776    0.8521   -1.8465 H       1  UNL1        0.0938
     57 H          -6.9112   -1.1250    2.1313 H       1  UNL1        0.0671
     58 H          -4.8741   -2.7070    0.4918 H       1  UNL1        0.0648
     59 H          -7.8547   -2.3243   -0.1296 H       1  UNL1        0.0647
     60 H          -5.5055   -0.9765   -1.6037 H       1  UNL1        0.0647
     61 H          -2.3638    3.7779   -0.6053 H       1  UNL1        0.0584
     62 H          -1.9282    3.0792   -2.1640 H       1  UNL1        0.0584
     63 H          -0.3349   -1.1247   -0.5496 H       1  UNL1        0.0584
     64 H           0.0921   -0.3371   -2.1011 H       1  UNL1        0.0584
     65 H           5.0324   -1.3120   -1.6215 H       1  UNL1        0.0651
     66 H          -4.2210    3.7318    1.5893 H       1  UNL1        0.2100
     67 H          -2.6671   -0.1080    2.9855 H       1  UNL1        0.2101
     68 H           1.5495    3.7457   -0.0407 H       1  UNL1        0.2100
     69 H          -8.5260   -0.6205   -1.9054 H       1  UNL1        0.0584
     70 H          -7.4690   -1.4907   -3.0520 H       1  UNL1        0.0584
     71 H           4.3122    3.5709    0.4405 H       1  UNL1        0.2101
     72 H           6.6090    0.5861   -1.4061 H       1  UNL1        0.0650
     73 H           5.8764   -2.1159    1.1998 H       1  UNL1        0.0643
     74 H          -5.0145   -0.5118    3.2306 H       1  UNL1        0.2101
     75 H          -7.2926   -3.3567    1.8331 H       1  UNL1        0.2100
     76 H          -5.6563   -3.3442   -1.6216 H       1  UNL1        0.2100
     77 H          -3.7826    4.3996   -2.2578 H       1  UNL1        0.2095
     78 H           0.2617   -2.5913   -2.1651 H       1  UNL1        0.2095
     79 H           6.8468    0.5043    1.2073 H       1  UNL1        0.0697
     80 H           3.5537   -3.1656   -0.4906 H       1  UNL1        0.0584
     81 H           3.3921   -2.2206    1.0218 H       1  UNL1        0.0584
     82 H          -7.8223    0.6829   -3.6165 H       1  UNL1        0.2095
     83 H           8.3952   -0.7234   -1.8177 H       1  UNL1        0.2100
     84 H           6.2125   -4.0724    0.0809 H       1  UNL1        0.2100
     85 H           8.2942    2.0710   -0.1249 H       1  UNL1        0.1055
     86 H           8.6609   -1.5106    0.3091 H       1  UNL1        0.2105
     87 H           3.2881   -4.4545    1.3550 H       1  UNL1        0.2095
@<TRIPOS>BOND
     1     1    23    1
     2     1    26    1
     3     2    26    1
     4     2    27    1
     5     3    22    1
     6     3    31    1
     7     4    29    1
     8     4    32    1
     9     5    31    1
    10     5    36    1
    11     6    32    1
    12     6    39    1
    13     7    24    1
    14     7    66    1
    15     8    25    1
    16     8    67    1
    17     9    28    1
    18     9    68    1
    19    10    30    1
    20    10    71    1
    21    11    33    1
    22    11    74    1
    23    12    34    1
    24    12    75    1
    25    13    35    1
    26    13    76    1
    27    14    37    1
    28    14    77    1
    29    15    38    1
    30    15    78    1
    31    16    40    1
    32    16    82    1
    33    17    41    1
    34    17    83    1
    35    18    42    1
    36    18    84    1
    37    19    43    1
    38    19    86    1
    39    20    44    1
    40    20    87    1
    41    21    45    2
    42    22    24    1
    43    22    27    1
    44    22    46    1
    45    23    28    1
    46    23    29    1
    47    23    47    1
    48    24    25    1
    49    24    48    1
    50    25    26    1
    51    25    49    1
    52    26    50    1
    53    27    37    1
    54    27    51    1
    55    28    30    1
    56    28    52    1
    57    29    38    1
    58    29    53    1
    59    30    32    1
    60    30    54    1
    61    31    33    1
    62    31    55    1
    63    32    56    1
    64    33    34    1
    65    33    57    1
    66    34    35    1
    67    34    58    1
    68    35    36    1
    69    35    59    1
    70    36    40    1
    71    36    60    1
    72    37    61    1
    73    37    62    1
    74    38    63    1
    75    38    64    1
    76    39    41    1
    77    39    42    1
    78    39    65    1
    79    40    69    1
    80    40    70    1
    81    41    43    1
    82    41    72    1
    83    42    44    1
    84    42    73    1
    85    43    45    1
    86    43    79    1
    87    44    80    1
    88    44    81    1
    89    45    85    1
