@<TRIPOS>MOLECULE
572
 21 20 0 0 0
SMALL
GASTEIGER

@<TRIPOS>ATOM
      1 P           2.4652    0.1742    0.0495 P.3     1  UNL1        0.3279
      2 O           2.5822   -1.1760    0.9183 O.3     1  UNL1       -0.3240
      3 O           2.8562    1.3405    1.0882 O.3     1  UNL1       -0.3240
      4 O           3.1887    0.1834   -1.2515 O.2     1  UNL1       -0.2588
      5 O          -2.0902   -1.6018    0.8898 O.3     1  UNL1       -0.2927
      6 O          -3.0710    1.6964   -0.1188 O.2     1  UNL1       -0.2772
      7 N          -2.2025   -0.4397    0.1114 N.am    1  UNL1       -0.1864
      8 C           0.0090   -0.7104   -0.9430 C.3     1  UNL1       -0.0239
      9 C           0.6780    0.3797   -0.1132 C.3     1  UNL1        0.0509
     10 C          -1.4889   -0.4966   -1.1346 C.3     1  UNL1        0.0420
     11 C          -2.9268    0.6503    0.5037 C.2     1  UNL1        0.2250
     12 H           0.4897   -0.7570   -1.9273 H       1  UNL1        0.0287
     13 H           0.1940   -1.6820   -0.4695 H       1  UNL1        0.0287
     14 H           0.2530    0.4049    0.8961 H       1  UNL1        0.0388
     15 H           0.4931    1.3587   -0.5692 H       1  UNL1        0.0388
     16 H          -1.6606    0.4198   -1.7100 H       1  UNL1        0.0489
     17 H          -1.9045   -1.3284   -1.7149 H       1  UNL1        0.0489
     18 H           3.4710   -1.5321    1.1311 H       1  UNL1        0.2198
     19 H           3.7975    1.4662    1.3337 H       1  UNL1        0.2198
     20 H          -3.3966    0.4950    1.4887 H       1  UNL1        0.1274
     21 H          -2.7918   -2.1466    0.4942 H       1  UNL1        0.2416
@<TRIPOS>BOND
     1     1     2    1
     2     1     3    1
     3     1     4    2
     4     1     9    1
     5     2    18    1
     6     3    19    1
     7     5     7    1
     8     5    21    1
     9     6    11    2
    10     7    10    1
    11     7    11   am
    12     8     9    1
    13     8    10    1
    14     8    12    1
    15     8    13    1
    16     9    14    1
    17     9    15    1
    18    10    16    1
    19    10    17    1
    20    11    20    1
