@<TRIPOS>MOLECULE
448013
 76 78 0 0 0
SMALL
GASTEIGER

@<TRIPOS>ATOM
      1 S           7.4162    0.7296   -1.0131 S.2     1  UNL1       -0.0802
      2 O           0.0118   -4.8725   -0.7212 O.3     1  UNL1       -0.3649
      3 O           0.6120   -0.9158    0.3402 O.3     1  UNL1       -0.4567
      4 O          -5.7608    0.2996   -1.6094 O.3     1  UNL1       -0.3908
      5 O          -0.8975    2.8484    2.2257 O.3     1  UNL1       -0.3903
      6 O          -3.6381    2.5877    1.2422 O.2     1  UNL1       -0.2964
      7 O           1.2367    0.3190    2.1922 O.2     1  UNL1       -0.2507
      8 N           5.2557    1.4232    0.2253 N.ar    1  UNL1       -0.2449
      9 C          -0.8752   -4.0529    0.0543 C.3     1  UNL1        0.0933
     10 C           0.6350   -3.9589    0.1932 C.3     1  UNL1        0.0918
     11 C          -1.7215   -3.1283   -0.7665 C.3     1  UNL1       -0.0215
     12 C           1.5295   -2.9694   -0.4925 C.3     1  UNL1        0.0173
     13 C          -1.5927   -4.8832    1.0714 C.3     1  UNL1       -0.0334
     14 C          -2.7210   -2.3763    0.1191 C.3     1  UNL1       -0.0501
     15 C          -3.5206   -1.3306   -0.6704 C.3     1  UNL1       -0.0480
     16 C           1.7972   -1.7364    0.3792 C.3     1  UNL1        0.1267
     17 C          -4.3864   -0.4262    0.2397 C.3     1  UNL1       -0.0171
     18 C          -4.9944    0.7941   -0.5078 C.3     1  UNL1        0.0670
     19 C          -3.9625    1.8369   -1.0178 C.3     1  UNL1        0.0415
     20 C          -1.6676    2.9049   -0.1262 C.3     1  UNL1        0.0501
     21 C           2.9529   -0.9608   -0.1712 C.2     1  UNL1       -0.0306
     22 C          -5.5176   -1.2435    0.8859 C.3     1  UNL1       -0.0601
     23 C          -3.1278    2.4313    0.1264 C.2     1  UNL1        0.1466
     24 C          -0.7093    2.2641    0.9341 C.3     1  UNL1        0.0771
     25 C          -0.8673    0.7462    1.0695 C.3     1  UNL1        0.0718
     26 C          -4.6601    2.9948   -1.7413 C.3     1  UNL1       -0.0533
     27 C           0.4548    0.0503    1.2910 C.2     1  UNL1        0.3102
     28 C          -1.6637    4.4414    0.0153 C.3     1  UNL1       -0.0507
     29 C          -1.1299    2.5669   -1.5305 C.3     1  UNL1       -0.0507
     30 C           2.7550   -0.4760   -1.5835 C.3     1  UNL1       -0.0400
     31 C           4.0873   -0.6681    0.4966 C.2     1  UNL1       -0.0333
     32 C           5.2252    0.0694    0.0226 C.ar    1  UNL1        0.0714
     33 C           6.2856   -0.4993   -0.6222 C.ar    1  UNL1        0.0027
     34 C           6.3763    1.8841   -0.2846 C.ar    1  UNL1        0.0759
     35 C           6.7826    3.3064   -0.2657 C.3     1  UNL1       -0.0159
     36 H           1.0989   -4.3803    1.0774 H       1  UNL1        0.0626
     37 H          -2.2719   -3.7094   -1.5168 H       1  UNL1        0.0294
     38 H          -1.1049   -2.4103   -1.3153 H       1  UNL1        0.0294
     39 H           1.0916   -2.6818   -1.4555 H       1  UNL1        0.0330
     40 H           2.4731   -3.4863   -0.7102 H       1  UNL1        0.0330
     41 H          -2.4977   -5.3302    0.6465 H       1  UNL1        0.0258
     42 H          -0.9705   -5.7067    1.4415 H       1  UNL1        0.0258
     43 H          -1.8721   -4.2794    1.9408 H       1  UNL1        0.0258
     44 H          -2.1870   -1.8915    0.9442 H       1  UNL1        0.0266
     45 H          -3.4233   -3.0869    0.5673 H       1  UNL1        0.0266
     46 H          -2.8149   -0.7173   -1.2390 H       1  UNL1        0.0269
     47 H          -4.1503   -1.8455   -1.4064 H       1  UNL1        0.0269
     48 H           1.9822   -2.0489    1.4151 H       1  UNL1        0.0783
     49 H          -3.7624   -0.0510    1.0579 H       1  UNL1        0.0323
     50 H          -5.7000    1.2997    0.1633 H       1  UNL1        0.0603
     51 H          -3.3135    1.3392   -1.7399 H       1  UNL1        0.0400
     52 H          -5.1208   -2.0097    1.5589 H       1  UNL1        0.0233
     53 H          -6.1682   -0.5987    1.4866 H       1  UNL1        0.0233
     54 H          -6.1363   -1.7410    0.1317 H       1  UNL1        0.0233
     55 H           0.3236    2.5070    0.6544 H       1  UNL1        0.0608
     56 H          -1.3022    0.3299    0.1586 H       1  UNL1        0.0403
     57 H          -1.5209    0.4699    1.9042 H       1  UNL1        0.0403
     58 H          -5.3637    3.5071   -1.0756 H       1  UNL1        0.0237
     59 H          -3.9420    3.7419   -2.0916 H       1  UNL1        0.0237
     60 H          -5.2157    2.6387   -2.6146 H       1  UNL1        0.0237
     61 H          -0.6474    4.8431   -0.0644 H       1  UNL1        0.0240
     62 H          -2.2714    4.9115   -0.7658 H       1  UNL1        0.0240
     63 H          -2.0789    4.7667    0.9757 H       1  UNL1        0.0240
     64 H          -1.1084    1.4895   -1.7213 H       1  UNL1        0.0240
     65 H          -1.7316    3.0294   -2.3194 H       1  UNL1        0.0240
     66 H          -0.1049    2.9359   -1.6553 H       1  UNL1        0.0240
     67 H           1.7802    0.0086   -1.7029 H       1  UNL1        0.0276
     68 H           3.4971    0.2641   -1.8981 H       1  UNL1        0.0276
     69 H           2.8163   -1.3089   -2.2913 H       1  UNL1        0.0276
     70 H          -5.1437    0.0140   -2.3039 H       1  UNL1        0.2098
     71 H           4.1724   -1.0288    1.5201 H       1  UNL1        0.0640
     72 H          -1.8147    2.6791    2.4999 H       1  UNL1        0.2098
     73 H           6.4627   -1.5338   -0.8820 H       1  UNL1        0.0715
     74 H           7.7220    3.4397    0.2804 H       1  UNL1        0.0298
     75 H           6.9101    3.6924   -1.2823 H       1  UNL1        0.0298
     76 H           6.0201    3.9168    0.2291 H       1  UNL1        0.0298
@<TRIPOS>BOND
     1     1    33   ar
     2     1    34   ar
     3     2     9    1
     4     2    10    1
     5     3    16    1
     6     3    27    1
     7     4    18    1
     8     4    70    1
     9     5    24    1
    10     5    72    1
    11     6    23    2
    12     7    27    2
    13     8    32   ar
    14     8    34   ar
    15     9    10    1
    16     9    11    1
    17     9    13    1
    18    10    12    1
    19    10    36    1
    20    11    14    1
    21    11    37    1
    22    11    38    1
    23    12    16    1
    24    12    39    1
    25    12    40    1
    26    13    41    1
    27    13    42    1
    28    13    43    1
    29    14    15    1
    30    14    44    1
    31    14    45    1
    32    15    17    1
    33    15    46    1
    34    15    47    1
    35    16    21    1
    36    16    48    1
    37    17    18    1
    38    17    22    1
    39    17    49    1
    40    18    19    1
    41    18    50    1
    42    19    23    1
    43    19    26    1
    44    19    51    1
    45    20    23    1
    46    20    24    1
    47    20    28    1
    48    20    29    1
    49    21    30    1
    50    21    31    2
    51    22    52    1
    52    22    53    1
    53    22    54    1
    54    24    25    1
    55    24    55    1
    56    25    27    1
    57    25    56    1
    58    25    57    1
    59    26    58    1
    60    26    59    1
    61    26    60    1
    62    28    61    1
    63    28    62    1
    64    28    63    1
    65    29    64    1
    66    29    65    1
    67    29    66    1
    68    30    67    1
    69    30    68    1
    70    30    69    1
    71    31    32    1
    72    31    71    1
    73    32    33   ar
    74    33    73    1
    75    34    35    1
    76    35    74    1
    77    35    75    1
    78    35    76    1
