@<TRIPOS>MOLECULE
33042
 65 67 0 0 0
SMALL
GASTEIGER

@<TRIPOS>ATOM
      1 O           1.3534   -0.7204    0.0083 O.3     1  UNL1       -0.3422
      2 O          -2.2968   -0.8339    0.1926 O.3     1  UNL1       -0.3402
      3 O           2.2328    1.4469    0.3670 O.3     1  UNL1       -0.3425
      4 O           0.1990   -2.8289   -1.5849 O.3     1  UNL1       -0.3876
      5 O          -2.2301    1.3651   -0.6785 O.3     1  UNL1       -0.3405
      6 O           4.7466    0.0211   -2.5884 O.3     1  UNL1       -0.3874
      7 O          -5.3163   -0.4207   -0.3511 O.3     1  UNL1       -0.3841
      8 O           5.7046    0.2394    0.1134 O.3     1  UNL1       -0.3866
      9 O          -4.9819    1.8618   -1.8030 O.3     1  UNL1       -0.3864
     10 O          -1.4251    3.5600    0.8767 O.3     1  UNL1       -0.3924
     11 N          -0.9140   -1.4863    2.8015 N.3     1  UNL1       -0.3250
     12 N          -2.1286   -3.7061    1.1250 N.3     1  UNL1       -0.3250
     13 N           1.8891   -0.4860   -2.7865 N.3     1  UNL1       -0.3211
     14 N           3.0638    2.1254    2.9637 N.3     1  UNL1       -0.3276
     15 C           0.0846   -0.7397    0.6665 C.3     1  UNL1        0.1055
     16 C          -1.0106   -1.1360   -0.3394 C.3     1  UNL1        0.1166
     17 C           0.1957   -1.6926    1.8708 C.3     1  UNL1        0.0355
     18 C          -0.9432   -2.6171   -0.7517 C.3     1  UNL1        0.0990
     19 C          -0.8422   -3.5889    0.4382 C.3     1  UNL1        0.0351
     20 C           0.2693   -3.1621    1.4152 C.3     1  UNL1       -0.0175
     21 C           1.6156    0.5572   -0.5684 C.3     1  UNL1        0.1776
     22 C          -2.9666    0.1333   -0.6025 C.3     1  UNL1        0.1884
     23 C           2.4988    0.4226   -1.8148 C.3     1  UNL1        0.0853
     24 C           3.9043   -0.0580   -1.4371 C.3     1  UNL1        0.1033
     25 C          -4.2990    0.4798    0.0391 C.3     1  UNL1        0.1341
     26 C           4.4905    0.8350   -0.3377 C.3     1  UNL1        0.1100
     27 C           3.5094    0.9932    0.8301 C.3     1  UNL1        0.1022
     28 C          -4.5305    1.8923   -0.4497 C.3     1  UNL1        0.1141
     29 C          -3.1214    2.4703   -0.4120 C.3     1  UNL1        0.1131
     30 C           3.9998    2.0118    1.8556 C.3     1  UNL1        0.0222
     31 C          -2.7512    3.0613    0.9418 C.3     1  UNL1        0.0730
     32 H          -0.1307    0.2621    1.0666 H       1  UNL1        0.0639
     33 H          -0.8359   -0.5716   -1.2651 H       1  UNL1        0.0650
     34 H           1.1251   -1.4708    2.4109 H       1  UNL1        0.0485
     35 H          -1.8225   -2.8708   -1.3561 H       1  UNL1        0.0636
     36 H          -0.5824   -4.5850    0.0586 H       1  UNL1        0.0485
     37 H           1.2438   -3.3290    0.9378 H       1  UNL1        0.0297
     38 H           0.2698   -3.8243    2.2921 H       1  UNL1        0.0297
     39 H           0.6805    1.0393   -0.8802 H       1  UNL1        0.0927
     40 H          -3.1065   -0.2630   -1.6167 H       1  UNL1        0.0938
     41 H           2.5923    1.4064   -2.2929 H       1  UNL1        0.0535
     42 H           3.9021   -1.1047   -1.1068 H       1  UNL1        0.0637
     43 H          -4.2232    0.4574    1.1329 H       1  UNL1        0.0671
     44 H           4.7401    1.8171   -0.7590 H       1  UNL1        0.0646
     45 H           3.3874    0.0286    1.3422 H       1  UNL1        0.0636
     46 H          -5.2683    2.4431    0.1403 H       1  UNL1        0.0648
     47 H          -2.9537    3.2081   -1.2046 H       1  UNL1        0.0647
     48 H          -0.8988   -0.5282    3.1485 H       1  UNL1        0.1185
     49 H          -0.7973   -2.0897    3.6145 H       1  UNL1        0.1185
     50 H          -2.4089   -2.7984    1.4945 H       1  UNL1        0.1185
     51 H          -2.0318   -4.3207    1.9324 H       1  UNL1        0.1185
     52 H           0.9958   -2.6328   -1.0657 H       1  UNL1        0.2100
     53 H           4.9812    1.7236    2.2461 H       1  UNL1        0.0448
     54 H           4.0995    2.9982    1.3879 H       1  UNL1        0.0448
     55 H           1.8540   -1.4291   -2.4059 H       1  UNL1        0.1187
     56 H           0.9235   -0.2098   -2.9588 H       1  UNL1        0.1187
     57 H          -2.7695    2.3053    1.7324 H       1  UNL1        0.0584
     58 H          -3.4219    3.8798    1.2208 H       1  UNL1        0.0584
     59 H           4.3443   -0.5321   -3.2797 H       1  UNL1        0.2100
     60 H          -5.0339   -1.3126   -0.0855 H       1  UNL1        0.2101
     61 H           6.2901    0.1501   -0.6580 H       1  UNL1        0.2100
     62 H          -5.0687    2.7835   -2.1006 H       1  UNL1        0.2100
     63 H           3.3726    2.8628    3.5956 H       1  UNL1        0.1183
     64 H           2.1500    2.4108    2.6139 H       1  UNL1        0.1183
     65 H          -1.4057    4.2593    0.2013 H       1  UNL1        0.2095
@<TRIPOS>BOND
     1     1    15    1
     2     1    21    1
     3     2    16    1
     4     2    22    1
     5     3    21    1
     6     3    27    1
     7     4    18    1
     8     4    52    1
     9     5    22    1
    10     5    29    1
    11     6    24    1
    12     6    59    1
    13     7    25    1
    14     7    60    1
    15     8    26    1
    16     8    61    1
    17     9    28    1
    18     9    62    1
    19    10    31    1
    20    10    65    1
    21    11    17    1
    22    11    48    1
    23    11    49    1
    24    12    19    1
    25    12    50    1
    26    12    51    1
    27    13    23    1
    28    13    55    1
    29    13    56    1
    30    14    30    1
    31    14    63    1
    32    14    64    1
    33    15    16    1
    34    15    17    1
    35    15    32    1
    36    16    18    1
    37    16    33    1
    38    17    20    1
    39    17    34    1
    40    18    19    1
    41    18    35    1
    42    19    20    1
    43    19    36    1
    44    20    37    1
    45    20    38    1
    46    21    23    1
    47    21    39    1
    48    22    25    1
    49    22    40    1
    50    23    24    1
    51    23    41    1
    52    24    26    1
    53    24    42    1
    54    25    28    1
    55    25    43    1
    56    26    27    1
    57    26    44    1
    58    27    30    1
    59    27    45    1
    60    28    29    1
    61    28    46    1
    62    29    31    1
    63    29    47    1
    64    30    53    1
    65    30    54    1
    66    31    57    1
    67    31    58    1
