@<TRIPOS>MOLECULE
72172
 46 46 0 0 0
SMALL
GASTEIGER

@<TRIPOS>ATOM
      1 O          -0.9001    1.7021    2.0790 O.3     1  UNL1       -0.3810
      2 O           1.7232    1.3162    1.9126 O.2     1  UNL1       -0.2729
      3 O           2.9143    1.8222   -1.3504 O.3     1  UNL1       -0.4793
      4 OXT         4.9246    0.8446   -1.0114 O.2     1  UNL1       -0.2489
      5 N           1.5567   -0.0047    0.0111 N.am    1  UNL1       -0.3002
      6 N          -0.2189    2.8976   -0.4599 N.3     1  UNL1       -0.3245
      7 CB          3.2281   -1.6713   -0.7224 C.3     1  UNL1       -0.0218
      8 CG          2.5436   -2.8755   -0.0367 C.3     1  UNL1       -0.0445
      9 CA          2.9629   -0.2740   -0.1422 C.3     1  UNL1        0.1205
     10 C          -0.9145    1.6078   -0.3505 C.3     1  UNL1        0.0437
     11 C          -0.4702    0.9337    0.9650 C.3     1  UNL1        0.1461
     12 C          -2.4448    1.8130   -0.4216 C.3     1  UNL1       -0.0095
     13 C           1.0468    0.7779    1.0386 C.2     0  ACE0        0.2438
     14 CD1         2.9806   -2.9355    1.4319 C.3     1  UNL1       -0.0626
     15 CD2         1.0187   -2.8438   -0.1115 C.3     1  UNL1       -0.0626
     16 C          -3.2282    0.5221   -0.3708 C.ar    1  UNL1       -0.0458
     17 C           3.7051    0.8265   -0.8840 C.2     1  UNL1        0.3253
     18 C          -3.5334   -0.1327   -1.5529 C.ar    1  UNL1       -0.0585
     19 C          -3.6257    0.0179    0.8568 C.ar    1  UNL1       -0.0585
     20 C          -4.2563   -1.3247   -1.5061 C.ar    1  UNL1       -0.0615
     21 C          -4.3487   -1.1741    0.9034 C.ar    1  UNL1       -0.0615
     22 C          -4.6639   -1.8453   -0.2781 C.ar    1  UNL1       -0.0617
     23 HB1         4.3125   -1.8467   -0.7333 H       1  UNL1        0.0291
     24 HB2         2.9257   -1.6698   -1.7790 H       1  UNL1        0.0291
     25 HG          2.8926   -3.7838   -0.5438 H       1  UNL1        0.0296
     26 HA          3.3928   -0.2394    0.8676 H       1  UNL1        0.0614
     27 H          -0.6146    0.9953   -1.2087 H       1  UNL1        0.0492
     28 H          -0.8973   -0.0707    1.0532 H       1  UNL1        0.0706
     29 H          -2.7848    2.4760    0.3858 H       1  UNL1        0.0329
     30 H          -2.7005    2.3436   -1.3495 H       1  UNL1        0.0329
     31 H           0.9351   -0.3202   -0.7259 H       1  UNL1        0.1496
     32 HD11        4.0725   -2.9357    1.5160 H       1  UNL1        0.0232
     33 HD12        2.5906   -2.0963    2.0165 H       1  UNL1        0.0232
     34 HD13        2.6135   -3.8568    1.8977 H       1  UNL1        0.0232
     35 HD21        0.5619   -2.1831    0.6292 H       1  UNL1        0.0232
     36 HD22        0.6717   -2.5681   -1.1123 H       1  UNL1        0.0232
     37 HD23        0.6250   -3.8456    0.0990 H       1  UNL1        0.0232
     38 H           0.7832    2.7451   -0.5648 H       1  UNL1        0.1186
     39 H          -0.5205    3.3749   -1.3086 H       1  UNL1        0.1186
     40 H          -0.7083    1.1867    2.8813 H       1  UNL1        0.2105
     41 H          -3.2178    0.2636   -2.5137 H       1  UNL1        0.0620
     42 H          -3.3969    0.5351    1.7834 H       1  UNL1        0.0620
     43 H          -4.5013   -1.8478   -2.4259 H       1  UNL1        0.0618
     44 H          -4.6681   -1.5785    1.8594 H       1  UNL1        0.0618
     45 H           3.4330    2.5233   -1.7994 H       1  UNL1        0.2951
     46 H          -5.2271   -2.7733   -0.2416 H       1  UNL1        0.0618
@<TRIPOS>BOND
     1     1    11    1
     2     1    40    1
     3     2    13    2
     4     3    17    1
     5     3    45    1
     6     4    17    2
     7     5     9    1
     8     5    13   am
     9     5    31    1
    10     6    10    1
    11     6    38    1
    12     6    39    1
    13     7     8    1
    14     7     9    1
    15     7    23    1
    16     7    24    1
    17     8    14    1
    18     8    15    1
    19     8    25    1
    20     9    17    1
    21     9    26    1
    22    10    11    1
    23    10    12    1
    24    10    27    1
    25    11    13    1
    26    11    28    1
    27    12    16    1
    28    12    29    1
    29    12    30    1
    30    14    32    1
    31    14    33    1
    32    14    34    1
    33    15    35    1
    34    15    36    1
    35    15    37    1
    36    16    18   ar
    37    16    19   ar
    38    18    20   ar
    39    18    41    1
    40    19    21   ar
    41    19    42    1
    42    20    22   ar
    43    20    43    1
    44    21    22   ar
    45    21    44    1
    46    22    46    1
