@<TRIPOS>MOLECULE
3357
 44 46 0 0 0
SMALL
GASTEIGER

@<TRIPOS>ATOM
      1 F          -1.0480    1.6720    0.5353 F       1  UNL1       -0.2013
      2 F          -1.8892   -2.8300   -0.5811 F       1  UNL1       -0.2034
      3 F           2.4413    3.4534   -1.0830 F       1  UNL1       -0.2472
      4 O           3.1226   -2.5210   -0.4070 O.2     1  UNL1       -0.2863
      5 O           5.4450   -1.6954    0.4885 O.3     1  UNL1       -0.4770
      6 O           5.8987    0.4533   -0.1497 O.2     1  UNL1       -0.2449
      7 N          -2.8393   -0.2991    0.0174 N.pl3   1  UNL1       -0.3230
      8 N          -5.6558    0.1473   -0.1490 N.3     1  UNL1       -0.3024
      9 N           1.7968    1.2314    0.4845 N.ar    1  UNL1       -0.3409
     10 C          -3.3708    0.7156   -0.9011 C.3     1  UNL1        0.0251
     11 C          -3.7749   -1.3612    0.3996 C.3     1  UNL1        0.0251
     12 C          -4.7142    1.2464   -0.3954 C.3     1  UNL1        0.0144
     13 C          -5.1060   -0.7636    0.8624 C.3     1  UNL1        0.0144
     14 C          -1.4657   -0.5641   -0.0192 C.ar    1  UNL1        0.1032
     15 C           0.8363    0.2273    0.2199 C.ar    1  UNL1        0.0905
     16 C          -0.5506    0.4590    0.2490 C.ar    1  UNL1        0.1711
     17 C          -6.9523    0.6693    0.2812 C.3     1  UNL1       -0.0126
     18 C          -1.0173   -1.8449   -0.3231 C.ar    1  UNL1        0.1479
     19 C           1.2651   -1.0837   -0.0923 C.ar    1  UNL1        0.0516
     20 C           0.3482   -2.1091   -0.3609 C.ar    1  UNL1       -0.0116
     21 C           1.3619    2.5886    0.8086 C.3     1  UNL1        0.0516
     22 C           2.7183   -1.3960   -0.1405 C.ar    1  UNL1        0.2035
     23 C           3.1423    0.9149    0.4307 C.ar    1  UNL1        0.0230
     24 C           3.6591   -0.2859    0.1468 C.ar    1  UNL1        0.1220
     25 C           1.2338    3.4106   -0.4578 C.3     1  UNL1        0.1080
     26 C           5.1146   -0.4348    0.1362 C.2     1  UNL1        0.3420
     27 H          -2.6923    1.5659   -1.0265 H       1  UNL1        0.0476
     28 H          -3.4977    0.2646   -1.8942 H       1  UNL1        0.0476
     29 H          -3.9693   -2.0197   -0.4563 H       1  UNL1        0.0476
     30 H          -3.3700   -1.9647    1.2214 H       1  UNL1        0.0476
     31 H          -4.5555    1.8349    0.5184 H       1  UNL1        0.0442
     32 H          -5.1218    1.9251   -1.1545 H       1  UNL1        0.0442
     33 H          -5.8065   -1.5875    1.0462 H       1  UNL1        0.0442
     34 H          -4.9605   -0.2400    1.8171 H       1  UNL1        0.0442
     35 H          -7.6655   -0.1490    0.4303 H       1  UNL1        0.0391
     36 H          -7.3791    1.3206   -0.4897 H       1  UNL1        0.0391
     37 H          -6.8819    1.2398    1.2144 H       1  UNL1        0.0391
     38 H           0.6795   -3.1157   -0.6004 H       1  UNL1        0.0654
     39 H           0.4812    2.6370    1.4525 H       1  UNL1        0.0517
     40 H           2.1418    3.0641    1.4207 H       1  UNL1        0.0517
     41 H           3.7841    1.7628    0.6502 H       1  UNL1        0.0818
     42 H           0.5088    2.9874   -1.1587 H       1  UNL1        0.0633
     43 H           0.9413    4.4387   -0.2267 H       1  UNL1        0.0633
     44 H           6.4161   -1.8344    0.4927 H       1  UNL1        0.2954
@<TRIPOS>BOND
     1     1    16    1
     2     2    18    1
     3     3    25    1
     4     4    22    2
     5     5    26    1
     6     5    44    1
     7     6    26    2
     8     7    10    1
     9     7    11    1
    10     7    14    1
    11     8    12    1
    12     8    13    1
    13     8    17    1
    14     9    15   ar
    15     9    21    1
    16     9    23   ar
    17    10    12    1
    18    10    27    1
    19    10    28    1
    20    11    13    1
    21    11    29    1
    22    11    30    1
    23    12    31    1
    24    12    32    1
    25    13    33    1
    26    13    34    1
    27    14    16   ar
    28    14    18   ar
    29    15    16   ar
    30    15    19   ar
    31    17    35    1
    32    17    36    1
    33    17    37    1
    34    18    20   ar
    35    19    20   ar
    36    19    22   ar
    37    20    38    1
    38    21    25    1
    39    21    39    1
    40    21    40    1
    41    22    24   ar
    42    23    24   ar
    43    23    41    1
    44    24    26    1
    45    25    42    1
    46    25    43    1
