@<TRIPOS>MOLECULE
72392
 48 49 0 0 0
SMALL
GASTEIGER

@<TRIPOS>ATOM
      1 O           0.0305   -0.4606   -0.2127 O.3     1  UNL1       -0.3422
      2 O          -1.5462    0.5195    1.2545 O.3     1  UNL1       -0.3425
      3 O           2.1167   -2.2252    0.5796 O.3     1  UNL1       -0.3866
      4 O           4.7052   -1.4901   -0.5016 O.3     1  UNL1       -0.3876
      5 O          -3.8592   -2.3275   -0.6510 O.3     1  UNL1       -0.3874
      6 O          -4.1925    0.4513   -1.3082 O.3     1  UNL1       -0.3866
      7 N           0.6343    2.3585    0.1285 N.3     1  UNL1       -0.3250
      8 N           5.3935    1.2921   -0.1336 N.3     1  UNL1       -0.3250
      9 N          -1.1646   -3.0211    0.1976 N.3     1  UNL1       -0.3211
     10 N          -3.8758    2.9236   -0.2654 N.3     1  UNL1       -0.3276
     11 C           1.3115   -0.0014    0.2286 C.3     1  UNL1        0.1051
     12 C           1.5967    1.3778   -0.3802 C.3     1  UNL1        0.0355
     13 C           2.3639   -1.0379   -0.1798 C.3     1  UNL1        0.1101
     14 C           4.0581    0.8236   -0.5143 C.3     1  UNL1        0.0351
     15 C           3.7951   -0.5609    0.0930 C.3     1  UNL1        0.0986
     16 C           3.0166    1.8456   -0.0501 C.3     1  UNL1       -0.0175
     17 C          -0.8481   -0.6751    0.8898 C.3     1  UNL1        0.1776
     18 C          -1.8556   -1.7880    0.5766 C.3     1  UNL1        0.0853
     19 C          -2.8228   -1.3515   -0.5293 C.3     1  UNL1        0.1033
     20 C          -3.4579   -0.0026   -0.1740 C.3     1  UNL1        0.1100
     21 C          -2.3909    1.0273    0.2160 C.3     1  UNL1        0.1022
     22 C          -3.0085    2.3224    0.7362 C.3     1  UNL1        0.0222
     23 H           1.3437    0.0941    1.3243 H       1  UNL1        0.0639
     24 H           1.4666    1.3260   -1.4683 H       1  UNL1        0.0485
     25 H           2.2489   -1.3165   -1.2348 H       1  UNL1        0.0646
     26 H           4.0387    0.7484   -1.6089 H       1  UNL1        0.0485
     27 H           3.9912   -0.5612    1.1730 H       1  UNL1        0.0635
     28 H           3.1125    2.0089    1.0330 H       1  UNL1        0.0297
     29 H           3.2079    2.8139   -0.5319 H       1  UNL1        0.0297
     30 H          -0.2880   -1.0024    1.7757 H       1  UNL1        0.0927
     31 H          -2.4376   -1.9983    1.4835 H       1  UNL1        0.0535
     32 H          -2.3234   -1.2902   -1.5040 H       1  UNL1        0.0637
     33 H          -4.1706   -0.1369    0.6499 H       1  UNL1        0.0646
     34 H          -1.7816    1.2698   -0.6646 H       1  UNL1        0.0636
     35 H           0.8539    3.2811   -0.2448 H       1  UNL1        0.1185
     36 H           0.7194    2.4354    1.1415 H       1  UNL1        0.1185
     37 H           5.4526    1.3827    0.8802 H       1  UNL1        0.1185
     38 H           5.5491    2.2268   -0.5097 H       1  UNL1        0.1185
     39 H          -2.2185    3.0286    1.0168 H       1  UNL1        0.0448
     40 H          -3.5818    2.1276    1.6502 H       1  UNL1        0.0448
     41 H           1.2237   -2.5358    0.3552 H       1  UNL1        0.2100
     42 H          -0.6453   -2.8688   -0.6667 H       1  UNL1        0.1187
     43 H          -1.8528   -3.7423   -0.0162 H       1  UNL1        0.1187
     44 H           4.5139   -2.3655   -0.1235 H       1  UNL1        0.2100
     45 H          -4.3150   -2.3929    0.2054 H       1  UNL1        0.2100
     46 H          -4.8492   -0.2329   -1.5235 H       1  UNL1        0.2100
     47 H          -3.3366    3.1402   -1.1027 H       1  UNL1        0.1183
     48 H          -4.2314    3.8126    0.0835 H       1  UNL1        0.1183
@<TRIPOS>BOND
     1     1    11    1
     2     1    17    1
     3     2    17    1
     4     2    21    1
     5     3    13    1
     6     3    41    1
     7     4    15    1
     8     4    44    1
     9     5    19    1
    10     5    45    1
    11     6    20    1
    12     6    46    1
    13     7    12    1
    14     7    35    1
    15     7    36    1
    16     8    14    1
    17     8    37    1
    18     8    38    1
    19     9    18    1
    20     9    42    1
    21     9    43    1
    22    10    22    1
    23    10    47    1
    24    10    48    1
    25    11    12    1
    26    11    13    1
    27    11    23    1
    28    12    16    1
    29    12    24    1
    30    13    15    1
    31    13    25    1
    32    14    15    1
    33    14    16    1
    34    14    26    1
    35    15    27    1
    36    16    28    1
    37    16    29    1
    38    17    18    1
    39    17    30    1
    40    18    19    1
    41    18    31    1
    42    19    20    1
    43    19    32    1
    44    20    21    1
    45    20    33    1
    46    21    22    1
    47    21    34    1
    48    22    39    1
    49    22    40    1
