@<TRIPOS>MOLECULE
3081545
 78 81 0 0 0
SMALL
GASTEIGER

@<TRIPOS>ATOM
      1 O          -1.8307   -0.5790   -1.3160 O.3     1  UNL1       -0.3413
      2 O           1.2792   -0.5180    0.6554 O.3     1  UNL1       -0.3436
      3 O          -3.2901   -0.4223    0.5364 O.3     1  UNL1       -0.3423
      4 O           3.2069    0.7873    0.5294 O.3     1  UNL1       -0.3184
      5 O           0.5194   -0.0753   -2.7371 O.3     1  UNL1       -0.3874
      6 O           4.4623   -1.2163    0.3651 O.3     1  UNL1       -0.3415
      7 O          -5.4699   -1.9926   -0.4002 O.3     1  UNL1       -0.3866
      8 O          -8.0435   -1.0561    0.5534 O.3     1  UNL1       -0.3876
      9 O           4.5334    1.4280    2.8966 O.3     1  UNL1       -0.3841
     10 O           7.3274    1.2225    2.0737 O.3     1  UNL1       -0.3874
     11 O           4.6510   -2.3597   -2.1011 O.3     1  UNL1       -0.3924
     12 N           2.2604    2.0231   -1.8988 N.3     1  UNL1       -0.3099
     13 N          -2.7889   -3.1349    1.2359 N.3     1  UNL1       -0.3231
     14 N          -3.6358    2.4423    0.2158 N.3     1  UNL1       -0.3250
     15 N          -8.4748    1.7792    0.2007 N.3     1  UNL1       -0.3250
     16 N           7.6522    0.4133   -0.6977 N.3     1  UNL1       -0.3230
     17 C          -0.6949   -0.0135   -0.6608 C.3     1  UNL1        0.1153
     18 C           0.1683   -1.1048   -0.0211 C.3     1  UNL1        0.0920
     19 C           0.1377    0.7898   -1.6653 C.3     1  UNL1        0.1038
     20 C          -0.6654   -1.9065    0.9769 C.3     1  UNL1       -0.0040
     21 C           1.3852    1.3359   -0.9487 C.3     1  UNL1        0.0877
     22 C          -1.9303   -2.4283    0.2884 C.3     1  UNL1        0.0590
     23 C          -2.6937   -1.2956   -0.4221 C.3     1  UNL1        0.1752
     24 C           2.1469    0.2045   -0.2281 C.3     1  UNL1        0.1803
     25 C          -4.5018    0.1500    0.0353 C.3     1  UNL1        0.1051
     26 C          -4.7035    1.5397    0.6534 C.3     1  UNL1        0.0355
     27 C          -5.6583   -0.7994    0.3669 C.3     1  UNL1        0.1101
     28 C          -7.0272   -0.1991    0.0263 C.3     1  UNL1        0.0986
     29 C          -6.0589    2.1306    0.2559 C.3     1  UNL1       -0.0175
     30 C          -7.2064    1.1941    0.6442 C.3     1  UNL1        0.0351
     31 C           3.9478   -0.2071    1.2346 C.3     1  UNL1        0.1908
     32 C           5.0688    0.3869    2.0875 C.3     1  UNL1        0.1332
     33 C           6.2198    0.9120    1.2255 C.3     1  UNL1        0.1033
     34 C           6.6620   -0.1609    0.2168 C.3     1  UNL1        0.0626
     35 C           5.4534   -0.7285   -0.5510 C.3     1  UNL1        0.1023
     36 C           1.7686    3.3637   -2.1741 C.3     1  UNL1       -0.0153
     37 C           5.8236   -1.9052   -1.4517 C.3     1  UNL1        0.0720
     38 H          -1.0357    0.6869    0.1126 H       1  UNL1        0.0649
     39 H           0.5385   -1.8151   -0.7715 H       1  UNL1        0.0624
     40 H          -0.4786    1.5838   -2.0990 H       1  UNL1        0.0637
     41 H          -0.0670   -2.7335    1.3800 H       1  UNL1        0.0308
     42 H          -0.9197   -1.2747    1.8388 H       1  UNL1        0.0308
     43 H           1.0615    2.0395   -0.1678 H       1  UNL1        0.0537
     44 H          -1.6062   -3.1437   -0.4795 H       1  UNL1        0.0509
     45 H          -3.4245   -1.7653   -1.0797 H       1  UNL1        0.0926
     46 H           2.5701   -0.4938   -0.9593 H       1  UNL1        0.0928
     47 H          -4.4258    0.2676   -1.0566 H       1  UNL1        0.0639
     48 H          -4.6434    1.4617    1.7466 H       1  UNL1        0.0485
     49 H          -5.6143   -1.1051    1.4189 H       1  UNL1        0.0646
     50 H          -7.1681   -0.1678   -1.0612 H       1  UNL1        0.0635
     51 H          -6.1950    3.1051    0.7440 H       1  UNL1        0.0297
     52 H          -6.0808    2.3157   -0.8277 H       1  UNL1        0.0297
     53 H          -7.2487    1.1066    1.7376 H       1  UNL1        0.0485
     54 H           3.2624   -0.7040    1.9317 H       1  UNL1        0.0938
     55 H           3.1962    2.0995   -1.4996 H       1  UNL1        0.1221
     56 H          -3.5934   -3.5240    0.7461 H       1  UNL1        0.1186
     57 H          -2.2832   -3.9241    1.6358 H       1  UNL1        0.1186
     58 H           5.4624   -0.3842    2.7624 H       1  UNL1        0.0671
     59 H           1.1739   -0.7200   -2.4291 H       1  UNL1        0.2100
     60 H           5.9234    1.8412    0.7239 H       1  UNL1        0.0637
     61 H           7.1491   -0.9747    0.7708 H       1  UNL1        0.0511
     62 H           4.9909    0.0500   -1.1722 H       1  UNL1        0.0636
     63 H          -2.7374    2.0879    0.5395 H       1  UNL1        0.1185
     64 H          -3.7577    3.3548    0.6533 H       1  UNL1        0.1185
     65 H          -9.2463    1.1795    0.4904 H       1  UNL1        0.1185
     66 H          -8.6181    2.6769    0.6615 H       1  UNL1        0.1185
     67 H          -5.6331   -1.7788   -1.3349 H       1  UNL1        0.2100
     68 H           1.7114    3.9718   -1.2651 H       1  UNL1        0.0388
     69 H           2.4604    3.8642   -2.8596 H       1  UNL1        0.0388
     70 H           0.7902    3.3543   -2.6628 H       1  UNL1        0.0388
     71 H          -7.9320   -1.0973    1.5185 H       1  UNL1        0.2100
     72 H           6.2235   -2.7367   -0.8619 H       1  UNL1        0.0583
     73 H           6.5505   -1.6216   -2.2175 H       1  UNL1        0.0583
     74 H           8.4228    0.8087   -0.1600 H       1  UNL1        0.1186
     75 H           8.0587   -0.3208   -1.2752 H       1  UNL1        0.1186
     76 H           3.8208    1.0449    3.4360 H       1  UNL1        0.2101
     77 H           7.5963    0.4080    2.5317 H       1  UNL1        0.2100
     78 H           4.9061   -3.1118   -2.6620 H       1  UNL1        0.2095
@<TRIPOS>BOND
     1     1    17    1
     2     1    23    1
     3     2    18    1
     4     2    24    1
     5     3    23    1
     6     3    25    1
     7     4    24    1
     8     4    31    1
     9     5    19    1
    10     5    59    1
    11     6    31    1
    12     6    35    1
    13     7    27    1
    14     7    67    1
    15     8    28    1
    16     8    71    1
    17     9    32    1
    18     9    76    1
    19    10    33    1
    20    10    77    1
    21    11    37    1
    22    11    78    1
    23    12    21    1
    24    12    36    1
    25    12    55    1
    26    13    22    1
    27    13    56    1
    28    13    57    1
    29    14    26    1
    30    14    63    1
    31    14    64    1
    32    15    30    1
    33    15    65    1
    34    15    66    1
    35    16    34    1
    36    16    74    1
    37    16    75    1
    38    17    18    1
    39    17    19    1
    40    17    38    1
    41    18    20    1
    42    18    39    1
    43    19    21    1
    44    19    40    1
    45    20    22    1
    46    20    41    1
    47    20    42    1
    48    21    24    1
    49    21    43    1
    50    22    23    1
    51    22    44    1
    52    23    45    1
    53    24    46    1
    54    25    26    1
    55    25    27    1
    56    25    47    1
    57    26    29    1
    58    26    48    1
    59    27    28    1
    60    27    49    1
    61    28    30    1
    62    28    50    1
    63    29    30    1
    64    29    51    1
    65    29    52    1
    66    30    53    1
    67    31    32    1
    68    31    54    1
    69    32    33    1
    70    32    58    1
    71    33    34    1
    72    33    60    1
    73    34    35    1
    74    34    61    1
    75    35    37    1
    76    35    62    1
    77    36    68    1
    78    36    69    1
    79    36    70    1
    80    37    72    1
    81    37    73    1
