@<TRIPOS>MOLECULE
6445540
 77 79 0 0 0
SMALL
GASTEIGER

@<TRIPOS>ATOM
      1 S          -5.1870   -3.0231   -1.0380 S.2     1  UNL1       -0.0802
      2 O          -0.6988    4.9639    0.3699 O.3     1  UNL1       -0.3650
      3 O           4.3271    0.4662   -1.5258 O.3     1  UNL1       -0.3908
      4 O           0.3916   -2.8930    1.9710 O.3     1  UNL1       -0.3904
      5 O           4.6373   -1.7432    0.3173 O.2     1  UNL1       -0.2964
      6 O          -0.0716    0.0780    3.6370 O.2     1  UNL1       -0.2757
      7 N          -0.2349    0.6329    1.3888 N.am    1  UNL1       -0.3086
      8 N          -4.9072   -0.4549   -1.1325 N.ar    1  UNL1       -0.2449
      9 C           0.5809    4.3447    0.2374 C.3     1  UNL1        0.0933
     10 C          -0.5311    3.7078    1.0574 C.3     1  UNL1        0.0901
     11 C           0.9372    3.9505   -1.1632 C.3     1  UNL1       -0.0215
     12 C          -1.4701    2.6421    0.5657 C.3     1  UNL1       -0.0015
     13 C           1.6210    5.1107    0.9949 C.3     1  UNL1       -0.0334
     14 C           1.6635    2.6113   -1.1602 C.3     1  UNL1       -0.0501
     15 C          -1.4767    1.3977    1.4702 C.3     1  UNL1        0.0469
     16 C           2.1115    2.1378   -2.5451 C.3     1  UNL1       -0.0480
     17 C           2.1943    0.5894   -2.6686 C.3     1  UNL1       -0.0171
     18 C           2.9913   -0.0451   -1.4969 C.3     1  UNL1        0.0670
     19 C           3.0068   -1.5882   -1.4432 C.3     1  UNL1        0.0415
     20 C          -2.5929    0.4765    1.0856 C.2     1  UNL1       -0.0505
     21 C           2.5449   -2.8615    0.8470 C.3     1  UNL1        0.0500
     22 C           0.7846    0.0038   -2.8204 C.3     1  UNL1       -0.0601
     23 C           3.4989   -2.0397   -0.0582 C.2     1  UNL1        0.1466
     24 C           1.2854   -2.0319    1.2538 C.3     1  UNL1        0.0752
     25 C           1.5838   -0.8096    2.1398 C.3     1  UNL1        0.0509
     26 C           0.3419    0.0050    2.4806 C.2     1  UNL1        0.2160
     27 C           3.8661   -2.2401   -2.5233 C.3     1  UNL1       -0.0533
     28 C          -3.6050    0.2433    2.1765 C.3     1  UNL1       -0.0417
     29 C           2.1227   -4.1366    0.0837 C.3     1  UNL1       -0.0507
     30 C           3.3263   -3.3365    2.0941 C.3     1  UNL1       -0.0507
     31 C          -2.7468   -0.1041   -0.1216 C.2     1  UNL1       -0.0351
     32 C          -3.7924   -0.9926   -0.5468 C.ar    1  UNL1        0.0713
     33 C          -3.7438   -2.3492   -0.4022 C.ar    1  UNL1        0.0027
     34 C          -5.7208   -1.4416   -1.4366 C.ar    1  UNL1        0.0759
     35 C          -7.0380   -1.2706   -2.0882 C.3     1  UNL1       -0.0159
     36 H          -0.4892    3.7640    2.1383 H       1  UNL1        0.0625
     37 H           1.5703    4.7188   -1.6231 H       1  UNL1        0.0294
     38 H           0.0369    3.8795   -1.7857 H       1  UNL1        0.0294
     39 H          -1.2408    2.3722   -0.4704 H       1  UNL1        0.0312
     40 H          -2.4794    3.0758    0.5559 H       1  UNL1        0.0312
     41 H           1.2642    5.4361    1.9785 H       1  UNL1        0.0258
     42 H           2.5102    4.4926    1.1543 H       1  UNL1        0.0258
     43 H           1.9218    6.0058    0.4403 H       1  UNL1        0.0258
     44 H           0.9911    1.8738   -0.7254 H       1  UNL1        0.0266
     45 H           2.5367    2.6626   -0.4983 H       1  UNL1        0.0266
     46 H          -1.6006    1.7201    2.5117 H       1  UNL1        0.0546
     47 H           1.4342    2.5225   -3.3175 H       1  UNL1        0.0269
     48 H           3.0952    2.5729   -2.7618 H       1  UNL1        0.0269
     49 H           2.7310    0.3909   -3.6060 H       1  UNL1        0.0323
     50 H           2.5630    0.2959   -0.5515 H       1  UNL1        0.0603
     51 H           1.9849   -1.9540   -1.5583 H       1  UNL1        0.0400
     52 H           0.1509    0.4529    0.4684 H       1  UNL1        0.1493
     53 H           0.2414    0.0084   -1.8716 H       1  UNL1        0.0233
     54 H           0.1978    0.5710   -3.5509 H       1  UNL1        0.0233
     55 H           0.8251   -1.0278   -3.1836 H       1  UNL1        0.0233
     56 H           0.7471   -1.7149    0.3548 H       1  UNL1        0.0607
     57 H           2.3058   -0.1401    1.6627 H       1  UNL1        0.0384
     58 H           2.0120   -1.1228    3.0992 H       1  UNL1        0.0384
     59 H           3.8006   -3.3317   -2.4588 H       1  UNL1        0.0237
     60 H           3.5339   -1.9444   -3.5230 H       1  UNL1        0.0237
     61 H           4.9242   -1.9780   -2.4201 H       1  UNL1        0.0237
     62 H          -3.1225   -0.2286    3.0393 H       1  UNL1        0.0275
     63 H          -4.0311    1.1990    2.5013 H       1  UNL1        0.0275
     64 H          -4.4424   -0.3959    1.8843 H       1  UNL1        0.0275
     65 H           2.9934   -4.6435   -0.3485 H       1  UNL1        0.0240
     66 H           1.6179   -4.8526    0.7421 H       1  UNL1        0.0240
     67 H           1.4342   -3.9129   -0.7374 H       1  UNL1        0.0240
     68 H           3.7331   -2.4975    2.6681 H       1  UNL1        0.0240
     69 H           2.7060   -3.9389    2.7654 H       1  UNL1        0.0240
     70 H           4.1824   -3.9576    1.8022 H       1  UNL1        0.0240
     71 H          -1.9993    0.1045   -0.8837 H       1  UNL1        0.0639
     72 H           4.6930    0.3045   -2.4116 H       1  UNL1        0.2098
     73 H           0.7439   -3.0253    2.8668 H       1  UNL1        0.2098
     74 H          -2.9700   -2.9709    0.0267 H       1  UNL1        0.0715
     75 H          -7.8435   -1.6524   -1.4526 H       1  UNL1        0.0298
     76 H          -7.2375   -0.2109   -2.2781 H       1  UNL1        0.0298
     77 H          -7.0718   -1.7935   -3.0495 H       1  UNL1        0.0298
@<TRIPOS>BOND
     1     1    33   ar
     2     1    34   ar
     3     2     9    1
     4     2    10    1
     5     3    18    1
     6     3    72    1
     7     4    24    1
     8     4    73    1
     9     5    23    2
    10     6    26    2
    11     7    15    1
    12     7    26   am
    13     7    52    1
    14     8    32   ar
    15     8    34   ar
    16     9    10    1
    17     9    11    1
    18     9    13    1
    19    10    12    1
    20    10    36    1
    21    11    14    1
    22    11    37    1
    23    11    38    1
    24    12    15    1
    25    12    39    1
    26    12    40    1
    27    13    41    1
    28    13    42    1
    29    13    43    1
    30    14    16    1
    31    14    44    1
    32    14    45    1
    33    15    20    1
    34    15    46    1
    35    16    17    1
    36    16    47    1
    37    16    48    1
    38    17    18    1
    39    17    22    1
    40    17    49    1
    41    18    19    1
    42    18    50    1
    43    19    23    1
    44    19    27    1
    45    19    51    1
    46    20    28    1
    47    20    31    2
    48    21    23    1
    49    21    24    1
    50    21    29    1
    51    21    30    1
    52    22    53    1
    53    22    54    1
    54    22    55    1
    55    24    25    1
    56    24    56    1
    57    25    26    1
    58    25    57    1
    59    25    58    1
    60    27    59    1
    61    27    60    1
    62    27    61    1
    63    28    62    1
    64    28    63    1
    65    28    64    1
    66    29    65    1
    67    29    66    1
    68    29    67    1
    69    30    68    1
    70    30    69    1
    71    30    70    1
    72    31    32    1
    73    31    71    1
    74    32    33   ar
    75    33    74    1
    76    34    35    1
    77    35    75    1
    78    35    76    1
    79    35    77    1
