@<TRIPOS>MOLECULE
72396
 70 72 0 0 0
SMALL
GASTEIGER

@<TRIPOS>ATOM
      1 O          -0.7899   -0.5547    0.1988 O.3     1  UNL1       -0.3413
      2 O           2.0374   -0.1747    0.0996 O.3     1  UNL1       -0.3423
      3 O          -2.6798    0.0576    1.4481 O.3     1  UNL1       -0.3459
      4 O           1.0714   -3.0784    2.0604 O.3     1  UNL1       -0.3865
      5 O           4.0623    0.7946    0.8294 O.3     1  UNL1       -0.3453
      6 O          -1.7852    1.8627   -0.6883 O.3     1  UNL1       -0.3851
      7 O          -6.0047    1.3002    0.4799 O.3     1  UNL1       -0.3849
      8 N          -0.4284   -4.1926   -0.3084 N.3     1  UNL1       -0.3250
      9 N           2.5925   -3.7895   -0.4170 N.3     1  UNL1       -0.3250
     10 N          -4.7853   -0.0679   -1.5636 N.3     1  UNL1       -0.3115
     11 N           0.5592    1.9480    1.3217 N.3     1  UNL1       -0.3232
     12 N           6.3005    2.0857   -1.7962 N.3     1  UNL1       -0.3277
     13 C          -0.4518   -1.8884    0.5865 C.3     1  UNL1        0.1051
     14 C           2.0895   -1.5465    0.4976 C.3     1  UNL1        0.1051
     15 C           0.8658   -1.8445    1.3800 C.3     1  UNL1        0.1104
     16 C          -0.3901   -2.7752   -0.6718 C.3     1  UNL1        0.0355
     17 C           2.1777   -2.4295   -0.7619 C.3     1  UNL1        0.0355
     18 C           0.8437   -2.4379   -1.5303 C.3     1  UNL1       -0.0175
     19 C          -2.2026   -0.3680    0.1712 C.3     1  UNL1        0.1870
     20 C          -4.0372    1.0249   -0.9221 C.3     1  UNL1        0.0692
     21 C          -2.5382    0.6689   -0.9103 C.3     1  UNL1        0.1239
     22 C          -4.5732    1.2873    0.5133 C.3     1  UNL1        0.1043
     23 C           2.6549    0.6628    1.0629 C.3     1  UNL1        0.1750
     24 C           1.9968    2.0501    1.0808 C.3     1  UNL1        0.0566
     25 C          -4.1009    0.1891    1.4766 C.3     1  UNL1        0.0808
     26 C           2.2811    2.8013   -0.2223 C.3     1  UNL1       -0.0307
     27 C           4.3781    1.4241   -0.4179 C.3     1  UNL1        0.0740
     28 C           3.7851    2.8331   -0.4817 C.3     1  UNL1       -0.0237
     29 C          -4.1413    2.6668    1.0369 C.3     1  UNL1       -0.0323
     30 C           5.8954    1.4651   -0.5426 C.3     1  UNL1        0.0196
     31 C          -4.6830    0.0254   -3.0094 C.3     1  UNL1       -0.0154
     32 H          -1.2233   -2.2766    1.2682 H       1  UNL1        0.0639
     33 H           3.0116   -1.7183    1.0725 H       1  UNL1        0.0639
     34 H           0.7613   -1.0723    2.1505 H       1  UNL1        0.0646
     35 H          -1.2695   -2.5834   -1.2984 H       1  UNL1        0.0485
     36 H           2.9389   -2.0093   -1.4319 H       1  UNL1        0.0485
     37 H           0.6940   -1.4415   -1.9688 H       1  UNL1        0.0297
     38 H           0.9057   -3.1245   -2.3854 H       1  UNL1        0.0297
     39 H          -2.7052   -1.3091   -0.0898 H       1  UNL1        0.0937
     40 H          -4.2050    1.9472   -1.4957 H       1  UNL1        0.0517
     41 H          -2.1859    0.2922   -1.8759 H       1  UNL1        0.0661
     42 H           2.5522    0.2417    2.0712 H       1  UNL1        0.0926
     43 H           2.4438    2.6293    1.8997 H       1  UNL1        0.0508
     44 H          -4.5693   -0.7770    1.2494 H       1  UNL1        0.0590
     45 H          -4.3964    0.4285    2.5048 H       1  UNL1        0.0590
     46 H          -0.4301   -4.7632   -1.1527 H       1  UNL1        0.1185
     47 H          -1.2983   -4.3983    0.1810 H       1  UNL1        0.1185
     48 H           2.6912   -4.3441   -1.2661 H       1  UNL1        0.1185
     49 H           3.5121   -3.7678    0.0217 H       1  UNL1        0.1185
     50 H           1.7751    2.3141   -1.0660 H       1  UNL1        0.0283
     51 H           1.8957    3.8266   -0.1671 H       1  UNL1        0.0283
     52 H           1.8784   -2.9894    2.5953 H       1  UNL1        0.2100
     53 H           3.9703    0.8099   -1.2316 H       1  UNL1        0.0609
     54 H           4.2528    3.4663    0.2835 H       1  UNL1        0.0291
     55 H           3.9693    3.3023   -1.4541 H       1  UNL1        0.0291
     56 H          -4.4358    3.4576    0.3377 H       1  UNL1        0.0258
     57 H          -4.6464    2.8949    1.9833 H       1  UNL1        0.0258
     58 H          -3.0656    2.7405    1.2139 H       1  UNL1        0.0258
     59 H          -5.7693    0.0044   -1.3043 H       1  UNL1        0.1221
     60 H          -1.9834    2.4750   -1.4173 H       1  UNL1        0.2101
     61 H          -6.3265    1.4005    1.3921 H       1  UNL1        0.2103
     62 H           6.2994    0.4475   -0.4843 H       1  UNL1        0.0447
     63 H           6.3324    2.0153    0.2991 H       1  UNL1        0.0447
     64 H           0.1533    2.8806    1.3843 H       1  UNL1        0.1186
     65 H           0.3919    1.4981    2.2206 H       1  UNL1        0.1186
     66 H          -3.6616   -0.1130   -3.3734 H       1  UNL1        0.0388
     67 H          -5.0716    0.9777   -3.3859 H       1  UNL1        0.0388
     68 H          -5.2854   -0.7706   -3.4597 H       1  UNL1        0.0388
     69 H           5.9278    1.5519   -2.5803 H       1  UNL1        0.1183
     70 H           7.3153    2.0470   -1.8808 H       1  UNL1        0.1183
@<TRIPOS>BOND
     1     1    13    1
     2     1    19    1
     3     2    14    1
     4     2    23    1
     5     3    19    1
     6     3    25    1
     7     4    15    1
     8     4    52    1
     9     5    23    1
    10     5    27    1
    11     6    21    1
    12     6    60    1
    13     7    22    1
    14     7    61    1
    15     8    16    1
    16     8    46    1
    17     8    47    1
    18     9    17    1
    19     9    48    1
    20     9    49    1
    21    10    20    1
    22    10    31    1
    23    10    59    1
    24    11    24    1
    25    11    64    1
    26    11    65    1
    27    12    30    1
    28    12    69    1
    29    12    70    1
    30    13    15    1
    31    13    16    1
    32    13    32    1
    33    14    15    1
    34    14    17    1
    35    14    33    1
    36    15    34    1
    37    16    18    1
    38    16    35    1
    39    17    18    1
    40    17    36    1
    41    18    37    1
    42    18    38    1
    43    19    21    1
    44    19    39    1
    45    20    21    1
    46    20    22    1
    47    20    40    1
    48    21    41    1
    49    22    25    1
    50    22    29    1
    51    23    24    1
    52    23    42    1
    53    24    26    1
    54    24    43    1
    55    25    44    1
    56    25    45    1
    57    26    28    1
    58    26    50    1
    59    26    51    1
    60    27    28    1
    61    27    30    1
    62    27    53    1
    63    28    54    1
    64    28    55    1
    65    29    56    1
    66    29    57    1
    67    29    58    1
    68    30    62    1
    69    30    63    1
    70    31    66    1
    71    31    67    1
    72    31    68    1
