@<TRIPOS>MOLECULE
121904
 65 65 0 0 0
SMALL
GASTEIGER

@<TRIPOS>ATOM
      1 O          -1.6053    1.3748    0.2260 O.3     1  UNL1       -0.4608
      2 O           4.2631   -0.4283    1.4627 O.3     1  UNL1       -0.3912
      3 O           2.4405    2.6624   -1.0489 O.3     1  UNL1       -0.3906
      4 O          -3.2551   -2.7993    0.4161 O.3     1  UNL1       -0.3907
      5 O          -0.4054   -3.9068   -0.1786 O.2     1  UNL1       -0.2968
      6 O          -0.9498    2.5415   -1.6565 O.2     1  UNL1       -0.2504
      7 C           3.1750   -0.8615   -0.6743 C.3     1  UNL1       -0.0168
      8 C           3.6511    0.2183    0.3402 C.3     1  UNL1        0.0627
      9 C           2.5435    1.1686    0.8930 C.3     1  UNL1        0.0092
     10 C           2.1232   -1.8277   -0.0748 C.3     1  UNL1       -0.0388
     11 C           0.8877   -2.0269   -0.9730 C.3     1  UNL1        0.0154
     12 C           1.6640    1.8098   -0.2118 C.3     1  UNL1        0.0728
     13 C          -3.3269   -0.3743    0.3285 C.3     1  UNL1        0.0200
     14 C          -1.0887   -1.7649    0.7146 C.3     1  UNL1        0.0412
     15 C          -2.4793   -1.6507    0.0484 C.3     1  UNL1        0.0704
     16 C          -2.7970    0.8802   -0.4189 C.3     1  UNL1        0.1077
     17 C           0.4326    2.5686    0.3430 C.3     1  UNL1        0.0798
     18 C          -0.2195   -2.6892   -0.1527 C.2     1  UNL1        0.1414
     19 C           4.3757   -1.6609   -1.2071 C.3     1  UNL1       -0.0600
     20 C           3.1950    2.2355    1.7921 C.3     1  UNL1       -0.0577
     21 C           1.1903   -2.8451   -2.2258 C.3     1  UNL1       -0.0557
     22 C          -3.5533   -0.1207    1.8226 C.3     1  UNL1       -0.0567
     23 C          -3.8424    1.9993   -0.4452 C.3     1  UNL1       -0.0182
     24 C          -1.0718   -2.3214    2.1408 C.3     1  UNL1       -0.0533
     25 C          -0.7787    2.1862   -0.4973 C.2     1  UNL1        0.3127
     26 C           0.5516    4.0920    0.3534 C.3     1  UNL1       -0.0499
     27 C          -5.1202    1.5406   -1.1169 C.3     1  UNL1       -0.0619
     28 H           2.7517   -0.3452   -1.5429 H       1  UNL1        0.0323
     29 H           4.4297    0.8246   -0.1390 H       1  UNL1        0.0599
     30 H           1.8869    0.5842    1.5501 H       1  UNL1        0.0348
     31 H           1.7766   -1.4589    0.8950 H       1  UNL1        0.0275
     32 H           2.5755   -2.8040    0.1454 H       1  UNL1        0.0275
     33 H           0.4930   -1.0592   -1.3034 H       1  UNL1        0.0375
     34 H           1.2963    1.0050   -0.8517 H       1  UNL1        0.0605
     35 H          -4.3118   -0.6309   -0.0795 H       1  UNL1        0.0359
     36 H          -2.3602   -1.7144   -1.0416 H       1  UNL1        0.0604
     37 H          -0.5975   -0.7886    0.7285 H       1  UNL1        0.0400
     38 H          -2.5488    0.5908   -1.4487 H       1  UNL1        0.0737
     39 H           0.2267    2.2360    1.3688 H       1  UNL1        0.0436
     40 H           4.0655   -2.3807   -1.9703 H       1  UNL1        0.0233
     41 H           5.1118   -0.9909   -1.6640 H       1  UNL1        0.0233
     42 H           4.8765   -2.2164   -0.4071 H       1  UNL1        0.0233
     43 H           3.8466    2.9006    1.2162 H       1  UNL1        0.0234
     44 H           2.4388    2.8456    2.2943 H       1  UNL1        0.0234
     45 H           3.7989    1.7766    2.5819 H       1  UNL1        0.0234
     46 H           1.6619   -3.8017   -1.9756 H       1  UNL1        0.0236
     47 H           0.2699   -3.0656   -2.7778 H       1  UNL1        0.0236
     48 H           1.8572   -2.3005   -2.9008 H       1  UNL1        0.0236
     49 H          -4.3418    0.6221    1.9792 H       1  UNL1        0.0234
     50 H          -3.8767   -1.0336    2.3332 H       1  UNL1        0.0234
     51 H          -2.6502    0.2504    2.3157 H       1  UNL1        0.0234
     52 H          -3.4451    2.8573   -1.0002 H       1  UNL1        0.0298
     53 H          -4.0477    2.3821    0.5607 H       1  UNL1        0.0298
     54 H          -0.0396   -2.4267    2.4950 H       1  UNL1        0.0237
     55 H          -1.5869   -1.6646    2.8438 H       1  UNL1        0.0237
     56 H          -1.5295   -3.3142    2.2046 H       1  UNL1        0.0237
     57 H           3.5752   -0.8989    1.9618 H       1  UNL1        0.2098
     58 H           1.4224    4.4239    0.9252 H       1  UNL1        0.0238
     59 H           0.6284    4.5069   -0.6575 H       1  UNL1        0.0238
     60 H          -0.3387    4.5380    0.8115 H       1  UNL1        0.0238
     61 H           1.8841    2.9156   -1.8051 H       1  UNL1        0.2098
     62 H          -2.7812   -3.5881    0.1020 H       1  UNL1        0.2098
     63 H          -4.9206    1.0173   -2.0574 H       1  UNL1        0.0231
     64 H          -5.7194    0.8948   -0.4688 H       1  UNL1        0.0231
     65 H          -5.7446    2.4103   -1.3493 H       1  UNL1        0.0231
@<TRIPOS>BOND
     1     1    16    1
     2     1    25    1
     3     2     8    1
     4     2    57    1
     5     3    12    1
     6     3    61    1
     7     4    15    1
     8     4    62    1
     9     5    18    2
    10     6    25    2
    11     7     8    1
    12     7    10    1
    13     7    19    1
    14     7    28    1
    15     8     9    1
    16     8    29    1
    17     9    12    1
    18     9    20    1
    19     9    30    1
    20    10    11    1
    21    10    31    1
    22    10    32    1
    23    11    18    1
    24    11    21    1
    25    11    33    1
    26    12    17    1
    27    12    34    1
    28    13    15    1
    29    13    16    1
    30    13    22    1
    31    13    35    1
    32    14    15    1
    33    14    18    1
    34    14    24    1
    35    14    37    1
    36    15    36    1
    37    16    23    1
    38    16    38    1
    39    17    25    1
    40    17    26    1
    41    17    39    1
    42    19    40    1
    43    19    41    1
    44    19    42    1
    45    20    43    1
    46    20    44    1
    47    20    45    1
    48    21    46    1
    49    21    47    1
    50    21    48    1
    51    22    49    1
    52    22    50    1
    53    22    51    1
    54    23    27    1
    55    23    52    1
    56    23    53    1
    57    24    54    1
    58    24    55    1
    59    24    56    1
    60    26    58    1
    61    26    59    1
    62    26    60    1
    63    27    63    1
    64    27    64    1
    65    27    65    1
