@<TRIPOS>MOLECULE
2993
 74 77 0 0 0
SMALL
GASTEIGER

@<TRIPOS>ATOM
      1 N           6.9190   -0.5312    0.6500 N.ar    1  UNL1       -0.1946
      2 N          -6.8995   -0.4892   -0.6655 N.ar    1  UNL1       -0.1946
      3 N          10.6087   -0.5436   -1.2485 N.pl3   1  UNL1       -0.3572
      4 N         -10.5758   -0.7075    1.2462 N.pl3   1  UNL1       -0.3572
      5 C           0.5659   -0.7320    0.5069 C.3     1  UNL1       -0.0531
      6 C          -0.5434   -0.6609   -0.5450 C.3     1  UNL1       -0.0531
      7 C           1.9749   -0.7220   -0.0931 C.3     1  UNL1       -0.0529
      8 C          -1.9283   -0.7077    0.1063 C.3     1  UNL1       -0.0529
      9 C           3.0833   -0.7192    0.9628 C.3     1  UNL1       -0.0473
     10 C          -3.0358   -0.5911   -0.9432 C.3     1  UNL1       -0.0473
     11 C           4.4689   -0.6843    0.3120 C.3     1  UNL1        0.0070
     12 C          -4.4426   -0.5356   -0.3394 C.3     1  UNL1        0.0070
     13 C           5.6051   -0.6002    1.3281 C.3     1  UNL1        0.1513
     14 C          -5.5865   -0.4850   -1.3500 C.3     1  UNL1        0.1513
     15 C           7.4475    0.6635    0.3234 C.ar    1  UNL1        0.2169
     16 C          -7.4809    0.6734   -0.3144 C.ar    1  UNL1        0.2169
     17 C           7.5292   -1.6948    0.3894 C.ar    1  UNL1        0.1831
     18 C          -7.4543   -1.6845   -0.4249 C.ar    1  UNL1        0.1831
     19 C           8.7023    0.7031   -0.3239 C.ar    1  UNL1        0.0670
     20 C          -8.7331    0.6430    0.3384 C.ar    1  UNL1        0.0670
     21 C           8.7610   -1.7149   -0.2434 C.ar    1  UNL1        0.0263
     22 C          -8.6810   -1.7733    0.2120 C.ar    1  UNL1        0.0263
     23 C           9.3508   -0.5078   -0.6020 C.ar    1  UNL1        0.0440
     24 C          -9.3240   -0.6015    0.5958 C.ar    1  UNL1        0.0440
     25 C           6.7659    1.8479    0.6200 C.ar    1  UNL1        0.0104
     26 C          -6.8558    1.8934   -0.5908 C.ar    1  UNL1        0.0104
     27 C           6.8799   -2.9805    0.7821 C.3     1  UNL1        0.0208
     28 C          -6.7485   -2.9312   -0.8445 C.3     1  UNL1        0.0208
     29 C           9.2503    1.9502   -0.6629 C.ar    1  UNL1       -0.0465
     30 C          -9.3365    1.8569    0.7031 C.ar    1  UNL1       -0.0465
     31 C           7.3257    3.0774    0.2756 C.ar    1  UNL1       -0.0555
     32 C          -7.4699    3.0892   -0.2210 C.ar    1  UNL1       -0.0555
     33 C           8.5639    3.1289   -0.3637 C.ar    1  UNL1       -0.0607
     34 C          -8.7063    3.0714    0.4239 C.ar    1  UNL1       -0.0607
     35 H           0.4631    0.1171    1.1942 H       1  UNL1        0.0265
     36 H           0.4410   -1.6417    1.1072 H       1  UNL1        0.0265
     37 H          -0.4384   -1.4970   -1.2468 H       1  UNL1        0.0265
     38 H          -0.4365    0.2641   -1.1243 H       1  UNL1        0.0265
     39 H           2.0835    0.1642   -0.7308 H       1  UNL1        0.0265
     40 H           2.0938   -1.5971   -0.7439 H       1  UNL1        0.0265
     41 H          -2.0218    0.1136    0.8271 H       1  UNL1        0.0265
     42 H          -2.0468   -1.6442    0.6643 H       1  UNL1        0.0265
     43 H           2.9631    0.1535    1.6159 H       1  UNL1        0.0267
     44 H           2.9955   -1.6118    1.5934 H       1  UNL1        0.0267
     45 H          -2.8766    0.3111   -1.5466 H       1  UNL1        0.0267
     46 H          -2.9733   -1.4459   -1.6278 H       1  UNL1        0.0267
     47 H           4.5859   -1.5566   -0.3387 H       1  UNL1        0.0326
     48 H           4.5214    0.1854   -0.3547 H       1  UNL1        0.0326
     49 H          -4.5017    0.3480    0.3087 H       1  UNL1        0.0326
     50 H          -4.5678   -1.3893    0.3352 H       1  UNL1        0.0326
     51 H           5.4883    0.2355    2.0222 H       1  UNL1        0.1031
     52 H           5.5740   -1.4546    2.0098 H       1  UNL1        0.1031
     53 H          -5.5203   -1.3254   -2.0463 H       1  UNL1        0.1031
     54 H          -5.5070    0.3673   -2.0289 H       1  UNL1        0.1031
     55 H           9.2603   -2.6563   -0.4560 H       1  UNL1        0.0698
     56 H          -9.1355   -2.7404    0.4085 H       1  UNL1        0.0698
     57 H           5.7884    1.8946    1.0839 H       1  UNL1        0.0683
     58 H          -5.8841    1.9938   -1.0582 H       1  UNL1        0.0683
     59 H           6.8956   -3.1069    1.8694 H       1  UNL1        0.0336
     60 H           5.8627   -3.0830    0.4018 H       1  UNL1        0.0336
     61 H           7.4328   -3.8328    0.3684 H       1  UNL1        0.0336
     62 H          -6.7687   -3.0402   -1.9336 H       1  UNL1        0.0336
     63 H          -5.7235   -2.9910   -0.4756 H       1  UNL1        0.0336
     64 H          -7.2559   -3.8156   -0.4397 H       1  UNL1        0.0336
     65 H          10.2096    2.0495   -1.1615 H       1  UNL1        0.0626
     66 H         -10.2969    1.9025    1.2072 H       1  UNL1        0.0626
     67 H           6.7937    3.9980    0.4986 H       1  UNL1        0.0620
     68 H          -6.9821    4.0374   -0.4286 H       1  UNL1        0.0620
     69 H           8.9949    4.0895   -0.6315 H       1  UNL1        0.0618
     70 H          -9.1798    4.0059    0.7115 H       1  UNL1        0.0618
     71 H          11.0452   -1.4383   -1.4308 H       1  UNL1        0.1423
     72 H          11.0892    0.2971   -1.5313 H       1  UNL1        0.1423
     73 H         -10.9698   -1.6246    1.4131 H       1  UNL1        0.1423
     74 H         -11.0931    0.1046    1.5470 H       1  UNL1        0.1423
@<TRIPOS>BOND
     1     1    13    1
     2     1    15   ar
     3     1    17   ar
     4     2    14    1
     5     2    16   ar
     6     2    18   ar
     7     3    23    1
     8     3    71    1
     9     3    72    1
    10     4    24    1
    11     4    73    1
    12     4    74    1
    13     5     6    1
    14     5     7    1
    15     5    35    1
    16     5    36    1
    17     6     8    1
    18     6    37    1
    19     6    38    1
    20     7     9    1
    21     7    39    1
    22     7    40    1
    23     8    10    1
    24     8    41    1
    25     8    42    1
    26     9    11    1
    27     9    43    1
    28     9    44    1
    29    10    12    1
    30    10    45    1
    31    10    46    1
    32    11    13    1
    33    11    47    1
    34    11    48    1
    35    12    14    1
    36    12    49    1
    37    12    50    1
    38    13    51    1
    39    13    52    1
    40    14    53    1
    41    14    54    1
    42    15    19   ar
    43    15    25   ar
    44    16    20   ar
    45    16    26   ar
    46    17    21   ar
    47    17    27    1
    48    18    22   ar
    49    18    28    1
    50    19    23   ar
    51    19    29   ar
    52    20    24   ar
    53    20    30   ar
    54    21    23   ar
    55    21    55    1
    56    22    24   ar
    57    22    56    1
    58    25    31   ar
    59    25    57    1
    60    26    32   ar
    61    26    58    1
    62    27    59    1
    63    27    60    1
    64    27    61    1
    65    28    62    1
    66    28    63    1
    67    28    64    1
    68    29    33   ar
    69    29    65    1
    70    30    34   ar
    71    30    66    1
    72    31    33   ar
    73    31    67    1
    74    32    34   ar
    75    32    68    1
    76    33    69    1
    77    34    70    1
