@<TRIPOS>MOLECULE
123865
 74 76 0 0 0
SMALL
GASTEIGER

@<TRIPOS>ATOM
      1 O           1.6389   -0.5196    0.1907 O.3     1  UNL1       -0.3422
      2 O          -1.2098   -0.6997    0.2008 O.3     1  UNL1       -0.3413
      3 O           3.7079    0.2686    1.0257 O.3     1  UNL1       -0.3412
      4 O           0.4156   -3.4402    1.9745 O.3     1  UNL1       -0.3865
      5 O          -3.0862   -0.0158    1.4334 O.3     1  UNL1       -0.3459
      6 O          -2.0065    1.8243   -0.5843 O.3     1  UNL1       -0.3851
      7 O          -6.2863    1.5096    0.4495 O.3     1  UNL1       -0.3849
      8 O           1.7436    3.8157    0.2219 O.3     1  UNL1       -0.3874
      9 O           3.8746    2.9455   -1.5006 O.3     1  UNL1       -0.3865
     10 O           6.0638    1.4658   -1.4611 O.3     1  UNL1       -0.3894
     11 N           1.9516   -4.1348   -0.4982 N.3     1  UNL1       -0.3250
     12 N          -1.0921   -4.3243   -0.4846 N.3     1  UNL1       -0.3250
     13 N          -5.1098    0.1606   -1.6314 N.3     1  UNL1       -0.3115
     14 N           0.2848    1.6372    1.4820 N.3     1  UNL1       -0.3211
     15 C           1.5828   -1.9097    0.5184 C.3     1  UNL1        0.1051
     16 C          -0.9778   -2.0718    0.5273 C.3     1  UNL1        0.1051
     17 C           0.3167   -2.1623    1.3540 C.3     1  UNL1        0.1104
     18 C           1.6438   -2.7330   -0.7825 C.3     1  UNL1        0.0355
     19 C          -0.9436   -2.8970   -0.7732 C.3     1  UNL1        0.0355
     20 C           0.3346   -2.6070   -1.5827 C.3     1  UNL1       -0.0175
     21 C           2.2904    0.2264    1.2166 C.3     1  UNL1        0.1776
     22 C          -2.6046   -0.4106    0.1484 C.3     1  UNL1        0.1870
     23 C          -4.3047    1.1635   -0.9162 C.3     1  UNL1        0.0692
     24 C          -2.8356    0.7003   -0.8860 C.3     1  UNL1        0.1239
     25 C           1.7354    1.6541    1.2895 C.3     1  UNL1        0.0853
     26 C          -4.8610    1.3919    0.5174 C.3     1  UNL1        0.1043
     27 C           2.1018    2.4460    0.0296 C.3     1  UNL1        0.1033
     28 C           4.1016    0.9120   -0.1912 C.3     1  UNL1        0.1155
     29 C           3.6110    2.3644   -0.2258 C.3     1  UNL1        0.1112
     30 C          -4.4947    0.2161    1.4339 C.3     1  UNL1        0.0808
     31 C           5.6229    0.8197   -0.2729 C.3     1  UNL1        0.0811
     32 C          -4.3475    2.7090    1.1219 C.3     1  UNL1       -0.0323
     33 C           6.0989   -0.6230   -0.2775 C.3     1  UNL1       -0.0364
     34 C          -4.9605    0.3182   -3.0675 C.3     1  UNL1       -0.0154
     35 H           2.4742   -2.1750    1.1059 H       1  UNL1        0.0639
     36 H          -1.7936   -2.4369    1.1689 H       1  UNL1        0.0639
     37 H           0.2455   -1.4239    2.1605 H       1  UNL1        0.0646
     38 H           2.4513   -2.3358   -1.4109 H       1  UNL1        0.0485
     39 H          -1.7893   -2.6114   -1.4105 H       1  UNL1        0.0485
     40 H           0.3720   -3.2529   -2.4704 H       1  UNL1        0.0297
     41 H           0.2682   -1.5819   -1.9726 H       1  UNL1        0.0297
     42 H           2.1271   -0.2385    2.1971 H       1  UNL1        0.0927
     43 H          -3.1649   -1.2989   -0.1731 H       1  UNL1        0.0937
     44 H          -4.3907    2.1229   -1.4453 H       1  UNL1        0.0517
     45 H          -2.4838    0.3478   -1.8607 H       1  UNL1        0.0661
     46 H           2.1829    2.1603    2.1555 H       1  UNL1        0.0535
     47 H           1.5441    2.0884   -0.8448 H       1  UNL1        0.0637
     48 H           3.6804    0.3686   -1.0486 H       1  UNL1        0.0650
     49 H           4.1420    2.9650    0.5227 H       1  UNL1        0.0646
     50 H          -5.0236   -0.7013    1.1458 H       1  UNL1        0.0590
     51 H          -4.8013    0.4247    2.4655 H       1  UNL1        0.0590
     52 H           2.8578   -4.2011   -0.0366 H       1  UNL1        0.1185
     53 H           2.0348   -4.6521   -1.3723 H       1  UNL1        0.1185
     54 H          -1.9878   -4.4909   -0.0279 H       1  UNL1        0.1185
     55 H          -1.1103   -4.8506   -1.3570 H       1  UNL1        0.1185
     56 H           1.2117   -3.4363    2.5328 H       1  UNL1        0.2100
     57 H           6.0751    1.3350    0.5831 H       1  UNL1        0.0617
     58 H          -3.2745    2.6961    1.3287 H       1  UNL1        0.0258
     59 H          -4.8616    2.9255    2.0662 H       1  UNL1        0.0258
     60 H          -4.5656    3.5527    0.4575 H       1  UNL1        0.0258
     61 H          -6.0931    0.2906   -1.3928 H       1  UNL1        0.1221
     62 H           0.0593    1.1617    2.3545 H       1  UNL1        0.1187
     63 H          -0.0598    2.5918    1.5740 H       1  UNL1        0.1187
     64 H          -2.1404    2.4848   -1.2853 H       1  UNL1        0.2101
     65 H          -6.6259    1.5872    1.3575 H       1  UNL1        0.2103
     66 H           2.2261    4.1486    0.9977 H       1  UNL1        0.2100
     67 H           3.4325    2.4030   -2.1757 H       1  UNL1        0.2100
     68 H           5.8252   -1.1489    0.6419 H       1  UNL1        0.0255
     69 H           5.6830   -1.1700   -1.1310 H       1  UNL1        0.0255
     70 H           7.1886   -0.6654   -0.3825 H       1  UNL1        0.0255
     71 H          -5.6048   -0.4091   -3.5729 H       1  UNL1        0.0388
     72 H          -5.2702    1.3135   -3.4036 H       1  UNL1        0.0388
     73 H          -3.9416    0.1249   -3.4130 H       1  UNL1        0.0388
     74 H           7.0346    1.4143   -1.4815 H       1  UNL1        0.2099
@<TRIPOS>BOND
     1     1    15    1
     2     1    21    1
     3     2    16    1
     4     2    22    1
     5     3    21    1
     6     3    28    1
     7     4    17    1
     8     4    56    1
     9     5    22    1
    10     5    30    1
    11     6    24    1
    12     6    64    1
    13     7    26    1
    14     7    65    1
    15     8    27    1
    16     8    66    1
    17     9    29    1
    18     9    67    1
    19    10    31    1
    20    10    74    1
    21    11    18    1
    22    11    52    1
    23    11    53    1
    24    12    19    1
    25    12    54    1
    26    12    55    1
    27    13    23    1
    28    13    34    1
    29    13    61    1
    30    14    25    1
    31    14    62    1
    32    14    63    1
    33    15    17    1
    34    15    18    1
    35    15    35    1
    36    16    17    1
    37    16    19    1
    38    16    36    1
    39    17    37    1
    40    18    20    1
    41    18    38    1
    42    19    20    1
    43    19    39    1
    44    20    40    1
    45    20    41    1
    46    21    25    1
    47    21    42    1
    48    22    24    1
    49    22    43    1
    50    23    24    1
    51    23    26    1
    52    23    44    1
    53    24    45    1
    54    25    27    1
    55    25    46    1
    56    26    30    1
    57    26    32    1
    58    27    29    1
    59    27    47    1
    60    28    29    1
    61    28    31    1
    62    28    48    1
    63    29    49    1
    64    30    50    1
    65    30    51    1
    66    31    33    1
    67    31    57    1
    68    32    58    1
    69    32    59    1
    70    32    60    1
    71    33    68    1
    72    33    69    1
    73    33    70    1
    74    34    71    1
    75    34    72    1
    76    34    73    1
