@<TRIPOS>MOLECULE
54708748
 87 91 0 0 0
SMALL
GASTEIGER

@<TRIPOS>ATOM
      1 O           9.6085    0.4959   -1.1712 O.3     1  UNL1       -0.3583
      2 O           6.7863    1.6789    0.5006 O.3     1  UNL1       -0.3382
      3 O           6.2072   -0.2312   -0.8006 O.3     1  UNL1       -0.3417
      4 O          -6.2531   -0.7784    0.8185 O.3     1  UNL1       -0.3531
      5 O          -8.9894   -0.8227   -0.1626 O.3     1  UNL1       -0.3892
      6 O          -3.1834    2.5848   -1.9054 O.2     1  UNL1       -0.2897
      7 O          -2.5607   -1.7017   -0.0613 O.2     1  UNL1       -0.2696
      8 O          -0.5264    1.8155   -1.5978 O.2     1  UNL1       -0.5059
      9 O          -4.0215    3.3283    0.8830 O.2     1  UNL1       -0.2755
     10 N          -4.4623   -0.3926   -0.6024 N.am    1  UNL1       -0.2605
     11 N          -4.6715    1.4131    2.0185 N.am    1  UNL1       -0.3181
     12 C           8.5668    0.1906   -0.2246 C.3     1  UNL1        0.1640
     13 C           7.1920    0.7907   -0.5599 C.3     1  UNL1        0.2031
     14 C           9.1567   -0.8597   -1.1520 C.3     1  UNL1        0.0868
     15 C           6.6314    0.9692    1.7417 C.3     1  UNL1        0.0852
     16 C           5.5121   -0.0754    1.5489 C.3     1  UNL1        0.0131
     17 C           5.8436   -1.0007    0.3542 C.3     1  UNL1        0.0732
     18 C           8.8598    0.0608    1.2187 C.2     1  UNL1       -0.0467
     19 C           7.9626    0.3974    2.1568 C.2     1  UNL1       -0.0562
     20 C           7.2129    1.6545   -1.8238 C.3     1  UNL1       -0.0072
     21 C           4.6621   -1.8736   -0.0598 C.3     1  UNL1        0.0015
     22 C           5.2202   -0.8484    2.8348 C.3     1  UNL1       -0.0574
     23 C           5.0382   -2.7513   -1.2559 C.3     1  UNL1       -0.0566
     24 C           3.4741   -1.0066   -0.4136 C.2     1  UNL1       -0.0758
     25 C           2.1583   -1.2801   -0.2823 C.2     1  UNL1       -0.0539
     26 C          -5.4980   -1.3306   -0.2582 C.3     1  UNL1        0.1285
     27 C          -4.8062    0.9259   -1.1616 C.3     1  UNL1        0.1026
     28 C          -6.3990   -1.6174   -1.4561 C.3     1  UNL1       -0.0072
     29 C          -7.5497   -2.5364   -1.0520 C.3     1  UNL1       -0.0205
     30 C          -8.2671   -2.0027    0.1879 C.3     1  UNL1        0.0813
     31 C          -7.2609   -1.6765    1.3003 C.3     1  UNL1        0.0840
     32 C          -5.5774    1.8079   -0.1969 C.3     1  UNL1        0.0585
     33 C          -3.4271    1.4890   -1.4280 C.2     1  UNL1        0.1927
     34 C          -3.1014   -0.6952   -0.4837 C.2     1  UNL1        0.2561
     35 C          -2.4162    0.4987   -1.0083 C.2     1  UNL1        0.1224
     36 C           1.6148   -2.5660    0.2837 C.3     1  UNL1       -0.0400
     37 C           1.1885   -0.2661   -0.7118 C.2     1  UNL1       -0.0557
     38 C          -7.9205   -1.0169    2.5060 C.3     1  UNL1       -0.0362
     39 C          -1.0877    0.6594   -1.0910 C.2     1  UNL1        0.1324
     40 C          -6.1979    2.9987   -0.9309 C.3     1  UNL1       -0.0520
     41 C          -0.1518   -0.3630   -0.6567 C.2     1  UNL1       -0.0191
     42 C          -4.6673    2.2839    0.9385 C.2     1  UNL1        0.2178
     43 C          -3.8996    1.6500    3.2162 C.3     1  UNL1        0.0001
     44 H           9.8333   -1.6037   -0.7499 H       1  UNL1        0.0594
     45 H           8.5699   -1.2047   -1.9941 H       1  UNL1        0.0594
     46 H           6.3262    1.7128    2.4867 H       1  UNL1        0.0645
     47 H           4.6202    0.5158    1.3028 H       1  UNL1        0.0352
     48 H           6.6827   -1.6607    0.6070 H       1  UNL1        0.0606
     49 H           9.8209   -0.3435    1.5216 H       1  UNL1        0.0601
     50 H           8.1805    0.2575    3.2098 H       1  UNL1        0.0595
     51 H           6.2220    2.0884   -2.0046 H       1  UNL1        0.0282
     52 H           7.4712    1.0683   -2.7121 H       1  UNL1        0.0282
     53 H           7.9166    2.4887   -1.7289 H       1  UNL1        0.0282
     54 H           4.4122   -2.5366    0.7747 H       1  UNL1        0.0366
     55 H           5.0989   -0.1626    3.6802 H       1  UNL1        0.0234
     56 H           4.2923   -1.4223    2.7507 H       1  UNL1        0.0234
     57 H           6.0271   -1.5474    3.0778 H       1  UNL1        0.0234
     58 H           5.2387   -2.1636   -2.1587 H       1  UNL1        0.0236
     59 H           5.9301   -3.3479   -1.0351 H       1  UNL1        0.0236
     60 H           4.2274   -3.4491   -1.4945 H       1  UNL1        0.0236
     61 H           3.7316   -0.0539   -0.8793 H       1  UNL1        0.0578
     62 H          -5.0282   -2.2598    0.0874 H       1  UNL1        0.0810
     63 H          -5.3061    0.7827   -2.1242 H       1  UNL1        0.0591
     64 H          -5.8251   -2.0651   -2.2755 H       1  UNL1        0.0307
     65 H          -6.8467   -0.6943   -1.8418 H       1  UNL1        0.0307
     66 H          -8.2479   -2.6285   -1.8918 H       1  UNL1        0.0292
     67 H          -7.1533   -3.5368   -0.8402 H       1  UNL1        0.0292
     68 H          -8.9958   -2.7385    0.5462 H       1  UNL1        0.0619
     69 H          -6.7701   -2.5987    1.6371 H       1  UNL1        0.0620
     70 H          -6.4404    1.3011    0.2356 H       1  UNL1        0.0414
     71 H           1.6240    0.6483   -1.1131 H       1  UNL1        0.0621
     72 H           0.9717   -3.0703   -0.4461 H       1  UNL1        0.0277
     73 H           1.0385   -2.3751    1.1956 H       1  UNL1        0.0277
     74 H           2.3997   -3.2798    0.5469 H       1  UNL1        0.0277
     75 H          -8.3313   -0.0340    2.2508 H       1  UNL1        0.0255
     76 H          -7.1784   -0.8447    3.2935 H       1  UNL1        0.0255
     77 H          -8.7205   -1.6420    2.9134 H       1  UNL1        0.0255
     78 H          -6.8801    2.6593   -1.7176 H       1  UNL1        0.0238
     79 H          -6.7724    3.6187   -0.2333 H       1  UNL1        0.0238
     80 H          -5.4459    3.6481   -1.3890 H       1  UNL1        0.0238
     81 H          -0.5298   -1.2845   -0.2499 H       1  UNL1        0.0654
     82 H          -9.6280   -1.0646   -0.8547 H       1  UNL1        0.2099
     83 H          -5.2066    0.5524    1.9660 H       1  UNL1        0.1484
     84 H          -1.2314    2.4309   -1.8563 H       1  UNL1        0.2922
     85 H          -2.9302    1.1586    3.1010 H       1  UNL1        0.0426
     86 H          -4.4340    1.2149    4.0637 H       1  UNL1        0.0426
     87 H          -3.7521    2.7211    3.3753 H       1  UNL1        0.0426
@<TRIPOS>BOND
     1     1    12    1
     2     1    14    1
     3     2    13    1
     4     2    15    1
     5     3    13    1
     6     3    17    1
     7     4    26    1
     8     4    31    1
     9     5    30    1
    10     5    82    1
    11     6    33    2
    12     7    34    2
    13     8    39    1
    14     8    84    1
    15     9    42    2
    16    10    26    1
    17    10    27    1
    18    10    34   am
    19    11    42   am
    20    11    43    1
    21    11    83    1
    22    12    13    1
    23    12    14    1
    24    12    18    1
    25    13    20    1
    26    14    44    1
    27    14    45    1
    28    15    16    1
    29    15    19    1
    30    15    46    1
    31    16    17    1
    32    16    22    1
    33    16    47    1
    34    17    21    1
    35    17    48    1
    36    18    19    2
    37    18    49    1
    38    19    50    1
    39    20    51    1
    40    20    52    1
    41    20    53    1
    42    21    23    1
    43    21    24    1
    44    21    54    1
    45    22    55    1
    46    22    56    1
    47    22    57    1
    48    23    58    1
    49    23    59    1
    50    23    60    1
    51    24    25    2
    52    24    61    1
    53    25    36    1
    54    25    37    1
    55    26    28    1
    56    26    62    1
    57    27    32    1
    58    27    33    1
    59    27    63    1
    60    28    29    1
    61    28    64    1
    62    28    65    1
    63    29    30    1
    64    29    66    1
    65    29    67    1
    66    30    31    1
    67    30    68    1
    68    31    38    1
    69    31    69    1
    70    32    40    1
    71    32    42    1
    72    32    70    1
    73    33    35    1
    74    34    35    1
    75    35    39    2
    76    36    72    1
    77    36    73    1
    78    36    74    1
    79    37    41    2
    80    37    71    1
    81    38    75    1
    82    38    76    1
    83    38    77    1
    84    39    41    1
    85    40    78    1
    86    40    79    1
    87    40    80    1
    88    41    81    1
    89    43    85    1
    90    43    86    1
    91    43    87    1
