@<TRIPOS>MOLECULE
6918835
 73 74 0 0 0
SMALL
GASTEIGER

@<TRIPOS>ATOM
      1 S          -4.9099    2.0016    0.8999 S.2     1  UNL1       -0.0802
      2 O           3.3371    0.8589   -2.9818 O.3     1  UNL1       -0.3903
      3 O          -0.7053    1.5651    2.3005 O.3     1  UNL1       -0.3905
      4 O           3.3770    2.0728    1.7261 O.2     1  UNL1       -0.2964
      5 O           0.3816   -1.2663   -1.3583 O.3     1  UNL1       -0.4565
      6 O           1.6955   -2.0669   -3.0842 O.2     1  UNL1       -0.2507
      7 N          -3.3203    2.0082   -1.1387 N.ar    1  UNL1       -0.2449
      8 C           3.4754    1.6190   -0.6459 C.3     1  UNL1        0.0501
      9 C           1.1972    1.6684    0.7902 C.3     1  UNL1        0.0418
     10 C           2.7287    0.7396   -1.6901 C.3     1  UNL1        0.0771
     11 C           2.7325    1.7763    0.7121 C.2     1  UNL1        0.1466
     12 C           0.7207    1.4411    2.2537 C.3     1  UNL1        0.0704
     13 C           1.1363    0.0820    2.8841 C.3     1  UNL1        0.0010
     14 C           3.7159    3.0439   -1.2063 C.3     1  UNL1       -0.0507
     15 C           4.8671    1.0217   -0.3439 C.3     1  UNL1       -0.0507
     16 C           2.6791   -0.7463   -1.3210 C.3     1  UNL1        0.0718
     17 C           0.5714    2.9430    0.2131 C.3     1  UNL1       -0.0533
     18 C           0.7357    0.0167    4.3647 C.3     1  UNL1       -0.0566
     19 C           0.5521   -1.1244    2.1805 C.2     1  UNL1       -0.0823
     20 C           1.5512   -1.4471   -2.0384 C.2     1  UNL1        0.3102
     21 C           1.2628   -2.2178    1.8572 C.2     1  UNL1       -0.0836
     22 C          -0.8106   -1.8596   -1.9147 C.3     1  UNL1        0.1276
     23 C           0.7692   -3.4827    1.1978 C.3     1  UNL1       -0.0138
     24 C          -0.9222   -3.3250   -1.4588 C.3     1  UNL1        0.0067
     25 C          -0.7318   -3.6346    1.0884 C.2     1  UNL1       -0.0727
     26 C          -1.4347   -3.5381   -0.0573 C.2     1  UNL1       -0.0809
     27 C          -1.9758   -1.0051   -1.5286 C.2     1  UNL1       -0.0304
     28 C          -1.4450   -3.9627    2.3785 C.3     1  UNL1       -0.0435
     29 C          -3.2967   -1.4771   -2.0773 C.3     1  UNL1       -0.0400
     30 C          -1.9169    0.0885   -0.7420 C.2     1  UNL1       -0.0333
     31 C          -2.9973    0.9449   -0.3387 C.ar    1  UNL1        0.0714
     32 C          -3.7271    0.7638    0.8007 C.ar    1  UNL1        0.0027
     33 C          -4.3258    2.6447   -0.5800 C.ar    1  UNL1        0.0759
     34 C          -4.9674    3.8537   -1.1412 C.3     1  UNL1       -0.0159
     35 H           0.8940    0.8103    0.2002 H       1  UNL1        0.0400
     36 H           1.7122    1.1215   -1.8272 H       1  UNL1        0.0608
     37 H           1.1232    2.2410    2.8897 H       1  UNL1        0.0606
     38 H           2.2310    0.0152    2.8510 H       1  UNL1        0.0365
     39 H           4.4533    3.0357   -2.0171 H       1  UNL1        0.0240
     40 H           2.7987    3.4827   -1.6079 H       1  UNL1        0.0240
     41 H           4.0884    3.7212   -0.4291 H       1  UNL1        0.0240
     42 H           5.4617    1.6934    0.2875 H       1  UNL1        0.0240
     43 H           4.7903    0.0721    0.1973 H       1  UNL1        0.0240
     44 H           5.4477    0.8484   -1.2556 H       1  UNL1        0.0240
     45 H           2.5418   -0.8978   -0.2480 H       1  UNL1        0.0403
     46 H           3.6062   -1.2640   -1.5953 H       1  UNL1        0.0403
     47 H          -0.5214    2.9213    0.2500 H       1  UNL1        0.0237
     48 H           0.9168    3.8314    0.7530 H       1  UNL1        0.0237
     49 H           0.8323    3.0729   -0.8394 H       1  UNL1        0.0237
     50 H           1.0988   -0.9070    4.8296 H       1  UNL1        0.0236
     51 H           1.1680    0.8570    4.9186 H       1  UNL1        0.0236
     52 H          -0.3519    0.0506    4.4938 H       1  UNL1        0.0236
     53 H          -0.5124   -1.0889    1.9680 H       1  UNL1        0.0573
     54 H           4.2083    0.4302   -2.9523 H       1  UNL1        0.2098
     55 H          -0.9190    2.5124    2.3442 H       1  UNL1        0.2098
     56 H           2.3274   -2.2192    2.0864 H       1  UNL1        0.0572
     57 H          -0.7300   -1.8351   -3.0097 H       1  UNL1        0.0785
     58 H           1.1555   -4.3363    1.7703 H       1  UNL1        0.0352
     59 H           1.2511   -3.5540    0.2176 H       1  UNL1        0.0352
     60 H          -1.6083   -3.8551   -2.1330 H       1  UNL1        0.0346
     61 H           0.0424   -3.8305   -1.5797 H       1  UNL1        0.0346
     62 H          -2.5133   -3.6774    0.0042 H       1  UNL1        0.0573
     63 H          -2.5231   -4.0935    2.2363 H       1  UNL1        0.0274
     64 H          -1.0543   -4.8964    2.7966 H       1  UNL1        0.0274
     65 H          -1.3080   -3.1696    3.1191 H       1  UNL1        0.0274
     66 H          -3.6304   -2.3954   -1.5875 H       1  UNL1        0.0276
     67 H          -4.1020   -0.7442   -1.9715 H       1  UNL1        0.0276
     68 H          -3.2055   -1.6769   -3.1511 H       1  UNL1        0.0276
     69 H          -0.9616    0.3944   -0.3526 H       1  UNL1        0.0640
     70 H          -3.6406    0.0009    1.5621 H       1  UNL1        0.0715
     71 H          -6.0274    3.6757   -1.3491 H       1  UNL1        0.0298
     72 H          -4.4872    4.1414   -2.0823 H       1  UNL1        0.0298
     73 H          -4.8823    4.6998   -0.4517 H       1  UNL1        0.0298
@<TRIPOS>BOND
     1     1    32   ar
     2     1    33   ar
     3     2    10    1
     4     2    54    1
     5     3    12    1
     6     3    55    1
     7     4    11    2
     8     5    20    1
     9     5    22    1
    10     6    20    2
    11     7    31   ar
    12     7    33   ar
    13     8    10    1
    14     8    11    1
    15     8    14    1
    16     8    15    1
    17     9    11    1
    18     9    12    1
    19     9    17    1
    20     9    35    1
    21    10    16    1
    22    10    36    1
    23    12    13    1
    24    12    37    1
    25    13    18    1
    26    13    19    1
    27    13    38    1
    28    14    39    1
    29    14    40    1
    30    14    41    1
    31    15    42    1
    32    15    43    1
    33    15    44    1
    34    16    20    1
    35    16    45    1
    36    16    46    1
    37    17    47    1
    38    17    48    1
    39    17    49    1
    40    18    50    1
    41    18    51    1
    42    18    52    1
    43    19    21    2
    44    19    53    1
    45    21    23    1
    46    21    56    1
    47    22    24    1
    48    22    27    1
    49    22    57    1
    50    23    25    1
    51    23    58    1
    52    23    59    1
    53    24    26    1
    54    24    60    1
    55    24    61    1
    56    25    26    2
    57    25    28    1
    58    26    62    1
    59    27    29    1
    60    27    30    2
    61    28    63    1
    62    28    64    1
    63    28    65    1
    64    29    66    1
    65    29    67    1
    66    29    68    1
    67    30    31    1
    68    30    69    1
    69    31    32   ar
    70    32    70    1
    71    33    34    1
    72    34    71    1
    73    34    72    1
    74    34    73    1
