@<TRIPOS>MOLECULE
10178705
 48 51 0 0 0
SMALL
GASTEIGER

@<TRIPOS>ATOM
      1 CL          1.1220    1.9818    0.5825 Cl      1  UNL1       -0.0794
      2 F           1.7753   -2.8904   -0.3459 F       1  UNL1       -0.2035
      3 O          -3.2462   -2.5873   -0.4446 O.2     1  UNL1       -0.2863
      4 O          -5.6035   -1.7261    0.2986 O.3     1  UNL1       -0.4770
      5 O          -6.0287    0.3885   -0.4618 O.2     1  UNL1       -0.2449
      6 N          -1.9645    1.2037    0.3344 N.ar    1  UNL1       -0.3414
      7 N           2.7064   -0.3852    0.1730 N.pl3   1  UNL1       -0.3250
      8 N           4.9965    1.3097   -2.2576 N.3     1  UNL1       -0.3259
      9 C          -1.7017    2.6343    0.6205 C.3     1  UNL1        0.0347
     10 C          -2.7013    3.6797    0.2584 C.3     1  UNL1       -0.0302
     11 C          -1.4009    3.5886   -0.4848 C.3     1  UNL1       -0.0302
     12 C          -0.9874    0.1815    0.1661 C.ar    1  UNL1        0.0735
     13 C           4.6231    0.8178   -0.9230 C.3     1  UNL1        0.0207
     14 C           3.3608   -0.0435   -1.0975 C.3     1  UNL1        0.0275
     15 C          -3.3056    0.8890    0.2309 C.ar    1  UNL1        0.0232
     16 C           3.4596   -1.1181    1.1940 C.3     1  UNL1        0.0124
     17 C           5.8006    0.0187   -0.3491 C.3     1  UNL1       -0.0362
     18 C           1.3209   -0.5999    0.0867 C.ar    1  UNL1        0.0860
     19 C           4.4674   -0.1991    1.8759 C.3     1  UNL1       -0.0372
     20 C           5.8163   -0.1045    1.1732 C.3     1  UNL1       -0.0502
     21 C          -1.4030   -1.1403   -0.1043 C.ar    1  UNL1        0.0503
     22 C           0.3918    0.4301    0.2578 C.ar    1  UNL1        0.0889
     23 C          -3.8051   -0.3272   -0.0216 C.ar    1  UNL1        0.1220
     24 C          -2.8530   -1.4512   -0.2107 C.ar    1  UNL1        0.2035
     25 C           0.8904   -1.8967   -0.1790 C.ar    1  UNL1        0.1465
     26 C          -0.4712   -2.1715   -0.2755 C.ar    1  UNL1       -0.0117
     27 C          -5.2591   -0.4822   -0.0965 C.2     1  UNL1        0.3420
     28 H          -1.2630    2.7812    1.6028 H       1  UNL1        0.0528
     29 H          -2.8272    4.5111    0.9440 H       1  UNL1        0.0286
     30 H          -3.5739    3.5083   -0.3589 H       1  UNL1        0.0286
     31 H          -1.4268    3.2238   -1.5045 H       1  UNL1        0.0286
     32 H          -0.6728    4.3707   -0.3078 H       1  UNL1        0.0286
     33 H           4.4144    1.6906   -0.2943 H       1  UNL1        0.0474
     34 H           2.6493    0.5103   -1.7269 H       1  UNL1        0.0479
     35 H           3.5931   -0.9681   -1.6438 H       1  UNL1        0.0479
     36 H           3.9435   -2.0045    0.7672 H       1  UNL1        0.0464
     37 H           2.7718   -1.4744    1.9725 H       1  UNL1        0.0464
     38 H           6.7520    0.4842   -0.6413 H       1  UNL1        0.0281
     39 H           5.8186   -0.9859   -0.7927 H       1  UNL1        0.0281
     40 H          -4.0034    1.6887    0.4420 H       1  UNL1        0.0819
     41 H           4.6528   -0.5714    2.8915 H       1  UNL1        0.0280
     42 H           4.0424    0.8054    1.9969 H       1  UNL1        0.0280
     43 H           6.3509    0.7582    1.5915 H       1  UNL1        0.0266
     44 H           6.4215   -0.9815    1.4369 H       1  UNL1        0.0266
     45 H          -0.7867   -3.1899   -0.4839 H       1  UNL1        0.0654
     46 H           4.2214    1.8331   -2.6627 H       1  UNL1        0.1185
     47 H           5.1655    0.5216   -2.8820 H       1  UNL1        0.1185
     48 H          -6.5733   -1.8691    0.2621 H       1  UNL1        0.2954
@<TRIPOS>BOND
     1     1    22    1
     2     2    25    1
     3     3    24    2
     4     4    27    1
     5     4    48    1
     6     5    27    2
     7     6     9    1
     8     6    12   ar
     9     6    15   ar
    10     7    14    1
    11     7    16    1
    12     7    18    1
    13     8    13    1
    14     8    46    1
    15     8    47    1
    16     9    10    1
    17     9    11    1
    18     9    28    1
    19    10    11    1
    20    10    29    1
    21    10    30    1
    22    11    31    1
    23    11    32    1
    24    12    21   ar
    25    12    22   ar
    26    13    14    1
    27    13    17    1
    28    13    33    1
    29    14    34    1
    30    14    35    1
    31    15    23   ar
    32    15    40    1
    33    16    19    1
    34    16    36    1
    35    16    37    1
    36    17    20    1
    37    17    38    1
    38    17    39    1
    39    18    22   ar
    40    18    25   ar
    41    19    20    1
    42    19    41    1
    43    19    42    1
    44    20    43    1
    45    20    44    1
    46    21    24   ar
    47    21    26   ar
    48    23    24   ar
    49    23    27    1
    50    25    26   ar
    51    26    45    1
