@<TRIPOS>MOLECULE
9852981
 64 68 0 0 0
SMALL
GASTEIGER

@<TRIPOS>ATOM
      1 S          -0.3284    1.9670    2.4381 S.3     1  UNL1       -0.1303
      2 S           3.6136    3.3909    1.1051 S.3     1  UNL1       -0.0644
      3 S           5.4684    1.2803   -0.0774 S.2     1  UNL1       -0.0685
      4 S          -2.1903   -4.0696   -0.9088 S.2     1  UNL1        0.0497
      5 P           0.5926   -1.6992   -3.0939 P.3     1  UNL1        0.4232
      6 O          -1.3460    2.8606   -2.0097 O.2     1  UNL1       -0.2731
      7 O           2.0544    2.4088   -1.9924 O.co2   1  UNL1       -0.5433
      8 OXT         1.9142    4.6725   -1.6929 O.co2   1  UNL1       -0.5433
      9 O          -4.0045    1.1775   -1.3697 O.2     1  UNL1       -0.2683
     10 O          -5.5248    0.1600    1.1414 O.2     1  UNL1       -0.3934
     11 O           1.2556   -0.8520   -1.8710 O.3     1  UNL1       -0.3096
     12 O           1.9376   -2.3636   -3.7269 O.3     1  UNL1       -0.3096
     13 O          -0.0719   -0.7685   -4.0777 O.2     1  UNL1       -0.2366
     14 N          -0.2251    3.1097    0.0479 N.am    1  UNL1       -0.2526
     15 N          -2.6493    1.2991    0.5431 N.am    1  UNL1       -0.2963
     16 N          -4.8463   -1.0015    0.7468 N.2     1  UNL1       -0.0760
     17 N           3.2957    0.7207    1.2069 N.ar    1  UNL1       -0.2324
     18 N          -1.9113   -1.5836   -1.3119 N.ar    1  UNL1       -0.2017
     19 N          -3.3307   -3.0907   -0.1727 N.ar    1  UNL1       -0.1854
     20 N           2.1248   -4.1383    1.7481 N.ar    1  UNL1       -0.2064
     21 N          -0.2631   -2.9281   -2.3829 N.pl3   1  UNL1       -0.2297
     22 C          -1.0081    3.1622    1.2673 C.3     1  UNL1        0.1041
     23 CA         -2.1995    2.6839    0.4077 C.3     1  UNL1        0.1286
     24 C          -1.2526    2.9143   -0.8059 C.2     1  UNL1        0.2439
     25 CA          1.1271    3.2445   -0.0046 C.2     1  UNL1        0.0704
     26 C           1.3023    2.7889    2.4931 C.3     1  UNL1        0.0288
     27 C           1.8736    3.1418    1.1214 C.2     1  UNL1        0.0252
     28 C           1.7677    3.4658   -1.3783 C.2     1  UNL1        0.0867
     29 C          -3.5049    0.6987   -0.3644 C.2     1  UNL1        0.2700
     30 C          -3.8280   -0.7305   -0.0127 C.2     1  UNL1        0.2084
     31 C           4.0504    1.7120    0.7873 C.ar    1  UNL1        0.1396
     32 C          -3.0073   -1.8412   -0.5061 C.ar    1  UNL1        0.1969
     33 C           3.8727   -0.4735    0.8211 C.ar    1  UNL1        0.0798
     34 C           5.0538   -0.3725    0.1163 C.ar    1  UNL1        0.0042
     35 C           3.2706   -1.7359    1.1403 C.ar    1  UNL1        0.0121
     36 C          -1.3622   -2.7405   -1.6107 C.ar    1  UNL1        0.1868
     37 C           1.8881   -1.8374    1.2636 C.ar    1  UNL1        0.0113
     38 C           4.0680   -2.8610    1.3272 C.ar    1  UNL1        0.0113
     39 C          -6.6160   -0.2247    1.9631 C.3     1  UNL1        0.1151
     40 C           1.3335   -3.0711    1.5734 C.ar    1  UNL1        0.1716
     41 C           3.4582   -4.0687    1.6354 C.ar    1  UNL1        0.1716
     42 C           1.5121   -5.4230    2.0740 C.3     1  UNL1        0.1404
     43 C          -7.3644    1.0158    2.4018 C.3     1  UNL1       -0.0281
     44 H          -1.1230    4.1806    1.6572 H       1  UNL1        0.0644
     45 HA         -3.0469    3.3796    0.4243 H       1  UNL1        0.0622
     46 H          -2.3316    0.7428    1.3334 H       1  UNL1        0.1499
     47 H           1.2072    3.7042    3.0888 H       1  UNL1        0.0431
     48 H           1.9665    2.1123    3.0404 H       1  UNL1        0.0431
     49 H           5.6839   -1.1452   -0.3018 H       1  UNL1        0.0716
     50 H           1.2338   -0.9824    1.1218 H       1  UNL1        0.0683
     51 H           5.1511   -2.8308    1.2602 H       1  UNL1        0.0683
     52 H          -6.2430   -0.7637    2.8413 H       1  UNL1        0.0720
     53 H          -7.2866   -0.8833    1.3995 H       1  UNL1        0.0720
     54 H           0.2656   -3.2137    1.6874 H       1  UNL1        0.1376
     55 H           4.0238   -4.9776    1.8020 H       1  UNL1        0.1376
     56 H           0.0294   -3.8944   -2.5135 H       1  UNL1        0.1596
     57 H           2.1277   -6.2349    1.6770 H       1  UNL1        0.0993
     58 H           0.5187   -5.4807    1.6202 H       1  UNL1        0.0993
     59 H           1.4422   -5.4899    3.1628 H       1  UNL1        0.0993
     60 H          -8.2141    0.7552    3.0388 H       1  UNL1        0.0263
     61 H          -7.7315    1.5721    1.5329 H       1  UNL1        0.0263
     62 H          -6.7020    1.6903    2.9545 H       1  UNL1        0.0263
     63 H           1.7650   -0.0408   -2.0827 H       1  UNL1        0.2213
     64 H           2.5533   -1.7880   -4.2287 H       1  UNL1        0.2213
@<TRIPOS>BOND
     1     1    22    1
     2     1    26    1
     3     2    27    1
     4     2    31    1
     5     3    31   ar
     6     3    34   ar
     7     4    19   ar
     8     4    36   ar
     9     5    11    1
    10     5    12    1
    11     5    13    2
    12     5    21    1
    13     6    24    2
    14     7    28   ar
    15     8    28   ar
    16     9    29    2
    17    10    16    1
    18    10    39    1
    19    11    63    1
    20    12    64    1
    21    14    22    1
    22    14    24   am
    23    14    25    1
    24    15    23    1
    25    15    29   am
    26    15    46    1
    27    16    30    2
    28    17    31   ar
    29    17    33   ar
    30    18    32   ar
    31    18    36   ar
    32    19    32   ar
    33    20    40   ar
    34    20    41   ar
    35    20    42    1
    36    21    36    1
    37    21    56    1
    38    22    23    1
    39    22    44    1
    40    23    24    1
    41    23    45    1
    42    25    27    2
    43    25    28    1
    44    26    27    1
    45    26    47    1
    46    26    48    1
    47    29    30    1
    48    30    32    1
    49    33    34   ar
    50    33    35    1
    51    34    49    1
    52    35    37   ar
    53    35    38   ar
    54    37    40   ar
    55    37    50    1
    56    38    41   ar
    57    38    51    1
    58    39    43    1
    59    39    52    1
    60    39    53    1
    61    40    54    1
    62    41    55    1
    63    42    57    1
    64    42    58    1
    65    42    59    1
    66    43    60    1
    67    43    61    1
    68    43    62    1
