@<TRIPOS>MOLECULE
4101
 22 24 0 0 0
SMALL
GASTEIGER

@<TRIPOS>ATOM
      1 N           0.7477   -1.1141    0.6817 N.3     1  UNL1       -0.2637
      2 N          -0.8166   -0.5631   -1.1318 N.3     1  UNL1       -0.2637
      3 N           0.9809    1.0052   -0.5408 N.3     1  UNL1       -0.2637
      4 N          -0.9120    0.6720    0.9908 N.3     1  UNL1       -0.2637
      5 C          -0.0675   -1.6411   -0.4404 C.3     1  UNL1        0.0565
      6 C           1.6916   -0.1065    0.1379 C.3     1  UNL1        0.0565
      7 C          -0.1607   -0.4327    1.6365 C.3     1  UNL1        0.0565
      8 C           0.1607    0.4327   -1.6366 C.3     1  UNL1        0.0565
      9 C          -1.6916    0.1066   -0.1379 C.3     1  UNL1        0.0565
     10 C           0.0675    1.6411    0.4405 C.3     1  UNL1        0.0565
     11 H           0.5778   -2.1664   -1.1566 H       1  UNL1        0.0597
     12 H          -0.7657   -2.4028   -0.0695 H       1  UNL1        0.0597
     13 H           2.3211    0.2900    0.9455 H       1  UNL1        0.0597
     14 H           2.3888   -0.5866   -0.5613 H       1  UNL1        0.0597
     15 H          -0.8617   -1.1589    2.0686 H       1  UNL1        0.0597
     16 H           0.4142   -0.0458    2.4882 H       1  UNL1        0.0597
     17 H           0.8128   -0.0315   -2.3882 H       1  UNL1        0.0597
     18 H          -0.3653    1.2361   -2.1687 H       1  UNL1        0.0597
     19 H          -2.2722    0.9004   -0.6259 H       1  UNL1        0.0597
     20 H          -2.4377   -0.6038    0.2418 H       1  UNL1        0.0597
     21 H           0.6492    2.0890    1.2569 H       1  UNL1        0.0597
     22 H          -0.4613    2.4802   -0.0304 H       1  UNL1        0.0597
@<TRIPOS>BOND
     1     1     5    1
     2     1     6    1
     3     1     7    1
     4     2     5    1
     5     2     8    1
     6     2     9    1
     7     3     6    1
     8     3     8    1
     9     3    10    1
    10     4     7    1
    11     4     9    1
    12     4    10    1
    13     5    11    1
    14     5    12    1
    15     6    13    1
    16     6    14    1
    17     7    15    1
    18     7    16    1
    19     8    17    1
    20     8    18    1
    21     9    19    1
    22     9    20    1
    23    10    21    1
    24    10    22    1
