@<TRIPOS>MOLECULE
124093
 51 55 0 0 0
SMALL
GASTEIGER

@<TRIPOS>ATOM
      1 F           1.9327    2.2912   -1.0057 F       1  UNL1       -0.1663
      2 F           0.3869    1.1432   -2.0167 F       1  UNL1       -0.1663
      3 O           0.2618    1.4481    0.2225 O.3     1  UNL1       -0.4315
      4 O          -4.0232   -2.7694   -0.0385 O.2     1  UNL1       -0.2863
      5 O          -6.2831   -1.6979   -0.8164 O.3     1  UNL1       -0.4770
      6 O          -6.7408    0.2488    0.2933 O.2     1  UNL1       -0.2449
      7 N          -2.6057    1.0522    0.0453 N.ar    1  UNL1       -0.3398
      8 N           6.4869   -0.2645   -1.0860 N.3     1  UNL1       -0.3056
      9 C          -2.2248    2.4839    0.0677 C.3     1  UNL1        0.0348
     10 C          -2.8166    3.4140    1.0722 C.3     1  UNL1       -0.0302
     11 C          -1.3691    3.0283    1.1612 C.3     1  UNL1       -0.0302
     12 C          -1.6677   -0.0175    0.1045 C.ar    1  UNL1        0.0961
     13 C          -3.9557    0.7717   -0.0383 C.ar    1  UNL1        0.0232
     14 C          -2.1307   -1.3509    0.0770 C.ar    1  UNL1        0.0496
     15 C          -0.2819    0.1946    0.1903 C.ar    1  UNL1        0.1586
     16 C          -4.4987   -0.4515   -0.0709 C.ar    1  UNL1        0.1220
     17 C           0.6079   -0.8818    0.2468 C.ar    1  UNL1        0.0261
     18 C          -3.5892   -1.6243   -0.0136 C.ar    1  UNL1        0.2035
     19 C           6.2339   -0.0133    0.3541 C.3     1  UNL1        0.0306
     20 C           4.7679   -0.2625    0.5414 C.ar    1  UNL1       -0.0263
     21 C           4.1581   -0.3635   -0.7093 C.ar    1  UNL1       -0.0283
     22 C           2.0402   -0.6683    0.3353 C.ar    1  UNL1       -0.0140
     23 C          -1.2382   -2.4285    0.1337 C.ar    1  UNL1       -0.0481
     24 C           5.1835   -0.1961   -1.7794 C.3     1  UNL1        0.0221
     25 C           0.1309   -2.1893    0.2186 C.ar    1  UNL1       -0.0497
     26 C           2.7946   -0.5631   -0.8328 C.ar    1  UNL1       -0.0492
     27 C           4.0241   -0.3555    1.7054 C.ar    1  UNL1       -0.0562
     28 C           2.6474   -0.5654    1.5954 C.ar    1  UNL1       -0.0536
     29 C           7.1259   -0.8894    1.2263 C.3     1  UNL1       -0.0455
     30 C          -5.9554   -0.5646   -0.1604 C.2     1  UNL1        0.3420
     31 C           0.5979    2.0413   -1.0233 C.3     1  UNL1        0.3893
     32 H          -2.1226    2.8880   -0.9337 H       1  UNL1        0.0528
     33 H          -3.4813    3.0233    1.8329 H       1  UNL1        0.0286
     34 H          -3.0507    4.4221    0.7521 H       1  UNL1        0.0286
     35 H          -0.6563    3.8144    0.9395 H       1  UNL1        0.0286
     36 H          -1.1144    2.4264    2.0268 H       1  UNL1        0.0286
     37 H          -4.5793    1.6591   -0.0940 H       1  UNL1        0.0819
     38 H           6.4402    1.0438    0.5611 H       1  UNL1        0.0507
     39 H          -1.5906   -3.4560    0.1128 H       1  UNL1        0.0625
     40 H           5.1114   -0.9860   -2.5335 H       1  UNL1        0.0474
     41 H           5.0717    0.7804   -2.2617 H       1  UNL1        0.0474
     42 H           0.8118   -3.0363    0.2617 H       1  UNL1        0.0625
     43 H           6.8519   -1.2119   -1.1954 H       1  UNL1        0.1228
     44 H           2.3393   -0.6378   -1.8154 H       1  UNL1        0.0627
     45 H           4.4884   -0.2644    2.6812 H       1  UNL1        0.0621
     46 H           2.0542   -0.6419    2.5043 H       1  UNL1        0.0624
     47 H           6.9235   -1.9558    1.0722 H       1  UNL1        0.0248
     48 H           8.1840   -0.7092    1.0068 H       1  UNL1        0.0248
     49 H           6.9674   -0.6753    2.2889 H       1  UNL1        0.0248
     50 H           0.0680    2.9722   -1.2293 H       1  UNL1        0.1520
     51 H          -7.2544   -1.8096   -0.8966 H       1  UNL1        0.2954
@<TRIPOS>BOND
     1     1    31    1
     2     2    31    1
     3     3    15    1
     4     3    31    1
     5     4    18    2
     6     5    30    1
     7     5    51    1
     8     6    30    2
     9     7     9    1
    10     7    12   ar
    11     7    13   ar
    12     8    19    1
    13     8    24    1
    14     8    43    1
    15     9    10    1
    16     9    11    1
    17     9    32    1
    18    10    11    1
    19    10    33    1
    20    10    34    1
    21    11    35    1
    22    11    36    1
    23    12    14   ar
    24    12    15   ar
    25    13    16   ar
    26    13    37    1
    27    14    18   ar
    28    14    23   ar
    29    15    17   ar
    30    16    18   ar
    31    16    30    1
    32    17    22    1
    33    17    25   ar
    34    19    20    1
    35    19    29    1
    36    19    38    1
    37    20    21   ar
    38    20    27   ar
    39    21    24    1
    40    21    26   ar
    41    22    26   ar
    42    22    28   ar
    43    23    25   ar
    44    23    39    1
    45    24    40    1
    46    24    41    1
    47    25    42    1
    48    26    44    1
    49    27    28   ar
    50    27    45    1
    51    28    46    1
    52    29    47    1
    53    29    48    1
    54    29    49    1
    55    31    50    1
