@<TRIPOS>MOLECULE
68682
 82 84 0 0 0
SMALL
GASTEIGER

@<TRIPOS>ATOM
      1 O           0.6188   -1.1973    0.0989 O.3     1  UNL1       -0.3410
      2 O           0.9052    1.5583   -0.6647 O.3     1  UNL1       -0.3423
      3 O          -1.6047   -0.1961   -2.6249 O.3     1  UNL1       -0.3865
      4 O           1.4210   -3.3883   -0.3124 O.3     1  UNL1       -0.3406
      5 O           1.4301    3.8456   -0.9214 O.3     1  UNL1       -0.3453
      6 O           0.9869   -1.5638    2.8229 O.3     1  UNL1       -0.3851
      7 O           4.9238   -2.3379    0.1317 O.3     1  UNL1       -0.3875
      8 O          -3.9734   -1.5183    2.0005 O.2     1  UNL1       -0.2730
      9 O           2.3143   -3.9870   -2.8189 O.3     1  UNL1       -0.3924
     10 O          -6.3742   -2.0184    0.9353 O.3     1  UNL1       -0.3825
     11 N          -3.0297   -0.9789   -0.0504 N.am    1  UNL1       -0.3077
     12 N          -2.7632    1.9375   -0.9200 N.3     1  UNL1       -0.3250
     13 N           3.8924   -2.1041    2.8327 N.3     1  UNL1       -0.3229
     14 N           3.4580    0.8334   -1.7330 N.3     1  UNL1       -0.3232
     15 N           1.8030    5.7988    2.1796 N.3     1  UNL1       -0.3277
     16 N          -6.5803    2.0302   -0.4740 N.3     1  UNL1       -0.3299
     17 C          -0.6272   -1.0848   -0.5900 C.3     1  UNL1        0.1083
     18 C          -0.3784    1.3770   -1.2665 C.3     1  UNL1        0.1051
     19 C          -1.7009   -0.6952    0.4374 C.3     1  UNL1        0.0535
     20 C          -0.4899   -0.0789   -1.7456 C.3     1  UNL1        0.1107
     21 C          -1.4686    1.7810   -0.2561 C.3     1  UNL1        0.0358
     22 C          -1.5657    0.7650    0.8952 C.3     1  UNL1       -0.0142
     23 C           0.7998   -2.5103    0.6267 C.3     1  UNL1        0.1874
     24 C           1.6767    2.5102   -1.3784 C.3     1  UNL1        0.1750
     25 C           1.6229   -2.4569    1.9154 C.3     1  UNL1        0.1234
     26 C           3.0630   -2.0137    1.6251 C.3     1  UNL1        0.0647
     27 C           3.1745    2.1897   -1.2693 C.3     1  UNL1        0.0566
     28 C           3.6697   -2.8937    0.5197 C.3     1  UNL1        0.1012
     29 C           2.7350   -2.9699   -0.6981 C.3     1  UNL1        0.1120
     30 C           3.6686    2.3916    0.1655 C.3     1  UNL1       -0.0307
     31 C           1.8060    4.0608    0.4439 C.3     1  UNL1        0.0740
     32 C           3.2987    3.7926    0.6460 C.3     1  UNL1       -0.0237
     33 C          -4.0639   -1.3708    0.7835 C.2     1  UNL1        0.2420
     34 C           3.2314   -3.9687   -1.7405 C.3     1  UNL1        0.0730
     35 C           1.4583    5.5011    0.7964 C.3     1  UNL1        0.0196
     36 C          -5.3725   -1.5838    0.0309 C.3     1  UNL1        0.1320
     37 C          -5.8533   -0.3163   -0.6858 C.3     1  UNL1       -0.0059
     38 C          -6.1121    0.8600    0.2630 C.3     1  UNL1       -0.0041
     39 H          -0.8896   -2.0535   -1.0405 H       1  UNL1        0.0642
     40 H          -0.4969    2.0352   -2.1391 H       1  UNL1        0.0639
     41 H          -1.5701   -1.3023    1.3409 H       1  UNL1        0.0525
     42 H           0.4108   -0.3354   -2.3176 H       1  UNL1        0.0646
     43 H          -1.2021    2.7509    0.1824 H       1  UNL1        0.0485
     44 H          -2.3955    1.0340    1.5621 H       1  UNL1        0.0300
     45 H          -0.6546    0.8531    1.5026 H       1  UNL1        0.0300
     46 H          -0.1703   -2.9541    0.8822 H       1  UNL1        0.0937
     47 H           1.4335    2.4891   -2.4491 H       1  UNL1        0.0926
     48 H          -3.2051   -0.8580   -1.0430 H       1  UNL1        0.1491
     49 H           1.6424   -3.4553    2.3722 H       1  UNL1        0.0660
     50 H           3.0724   -0.9600    1.3175 H       1  UNL1        0.0512
     51 H           3.7221    2.8948   -1.9088 H       1  UNL1        0.0508
     52 H          -3.4518    2.2761   -0.2497 H       1  UNL1        0.1185
     53 H          -2.6945    2.6510   -1.6444 H       1  UNL1        0.1185
     54 H           3.8492   -3.9043    0.9086 H       1  UNL1        0.0636
     55 H           2.6566   -1.9919   -1.1894 H       1  UNL1        0.0646
     56 H          -1.4543    0.4048   -3.3743 H       1  UNL1        0.2100
     57 H           4.7557    2.2586    0.2205 H       1  UNL1        0.0283
     58 H           3.2207    1.6466    0.8356 H       1  UNL1        0.0283
     59 H           1.2172    3.3864    1.0794 H       1  UNL1        0.0609
     60 H           3.5863    3.8963    1.6979 H       1  UNL1        0.0291
     61 H           3.8865    4.5198    0.0707 H       1  UNL1        0.0291
     62 H           3.2744   -4.9796   -1.3217 H       1  UNL1        0.0584
     63 H           4.2195   -3.6918   -2.1203 H       1  UNL1        0.0584
     64 H           3.5112   -1.4922    3.5530 H       1  UNL1        0.1186
     65 H           4.8303   -1.7620    2.6276 H       1  UNL1        0.1186
     66 H           0.3874    5.6733    0.6352 H       1  UNL1        0.0447
     67 H           1.9826    6.1945    0.1283 H       1  UNL1        0.0447
     68 H           4.4623    0.6631   -1.7058 H       1  UNL1        0.1186
     69 H           3.1734    0.7360   -2.7066 H       1  UNL1        0.1186
     70 H           0.0966   -1.9113    3.0020 H       1  UNL1        0.2101
     71 H          -5.2090   -2.3855   -0.6988 H       1  UNL1        0.0690
     72 H           4.7592   -1.4504   -0.2304 H       1  UNL1        0.2100
     73 H          -5.1351   -0.0164   -1.4577 H       1  UNL1        0.0307
     74 H          -6.7921   -0.5494   -1.2063 H       1  UNL1        0.0307
     75 H           1.5064    6.7472    2.4058 H       1  UNL1        0.1183
     76 H           1.2857    5.1809    2.8035 H       1  UNL1        0.1183
     77 H           2.6474   -4.6299   -3.4680 H       1  UNL1        0.2095
     78 H          -7.1499   -2.2802    0.4106 H       1  UNL1        0.2104
     79 H          -5.2031    1.1250    0.8115 H       1  UNL1        0.0423
     80 H          -6.8733    0.5875    1.0017 H       1  UNL1        0.0423
     81 H          -6.6964    2.8109    0.1709 H       1  UNL1        0.1182
     82 H          -5.8696    2.3179   -1.1457 H       1  UNL1        0.1182
@<TRIPOS>BOND
     1     1    17    1
     2     1    23    1
     3     2    18    1
     4     2    24    1
     5     3    20    1
     6     3    56    1
     7     4    23    1
     8     4    29    1
     9     5    24    1
    10     5    31    1
    11     6    25    1
    12     6    70    1
    13     7    28    1
    14     7    72    1
    15     8    33    2
    16     9    34    1
    17     9    77    1
    18    10    36    1
    19    10    78    1
    20    11    19    1
    21    11    33   am
    22    11    48    1
    23    12    21    1
    24    12    52    1
    25    12    53    1
    26    13    26    1
    27    13    64    1
    28    13    65    1
    29    14    27    1
    30    14    68    1
    31    14    69    1
    32    15    35    1
    33    15    75    1
    34    15    76    1
    35    16    38    1
    36    16    81    1
    37    16    82    1
    38    17    19    1
    39    17    20    1
    40    17    39    1
    41    18    20    1
    42    18    21    1
    43    18    40    1
    44    19    22    1
    45    19    41    1
    46    20    42    1
    47    21    22    1
    48    21    43    1
    49    22    44    1
    50    22    45    1
    51    23    25    1
    52    23    46    1
    53    24    27    1
    54    24    47    1
    55    25    26    1
    56    25    49    1
    57    26    28    1
    58    26    50    1
    59    27    30    1
    60    27    51    1
    61    28    29    1
    62    28    54    1
    63    29    34    1
    64    29    55    1
    65    30    32    1
    66    30    57    1
    67    30    58    1
    68    31    32    1
    69    31    35    1
    70    31    59    1
    71    32    60    1
    72    32    61    1
    73    33    36    1
    74    34    62    1
    75    34    63    1
    76    35    66    1
    77    35    67    1
    78    36    37    1
    79    36    71    1
    80    37    38    1
    81    37    73    1
    82    37    74    1
    83    38    79    1
    84    38    80    1
