@<TRIPOS>MOLECULE
3998
 22 22 0 0 0
SMALL
GASTEIGER

@<TRIPOS>ATOM
      1 S           2.5102   -0.0004   -0.2001 S.O2    1  UNL1        0.0559
      2 O           2.9064   -1.2609   -0.8124 O.2     1  UNL1       -0.1533
      3 O           2.9103    1.2586   -0.8129 O.2     1  UNL1       -0.1533
      4 N           3.0125    0.0008    1.4331 N.3     1  UNL1       -0.2035
      5 N          -4.1799   -0.0010   -0.8487 N.3     1  UNL1       -0.3261
      6 C           0.7742    0.0002   -0.0143 C.ar    1  UNL1        0.1050
      7 C          -1.9998    0.0006    0.2817 C.ar    1  UNL1       -0.0337
      8 C           0.0807    1.2082    0.0588 C.ar    1  UNL1       -0.0351
      9 C           0.0807   -1.2076    0.0605 C.ar    1  UNL1       -0.0351
     10 C          -1.3063    1.2085    0.2070 C.ar    1  UNL1       -0.0555
     11 C          -1.3063   -1.2075    0.2085 C.ar    1  UNL1       -0.0555
     12 C          -3.4828    0.0006    0.4387 C.3     1  UNL1        0.0185
     13 H           0.6012    2.1605    0.0087 H       1  UNL1        0.0637
     14 H           0.6009   -2.1602    0.0118 H       1  UNL1        0.0637
     15 H          -1.8349    2.1564    0.2626 H       1  UNL1        0.0621
     16 H          -1.8351   -2.1554    0.2654 H       1  UNL1        0.0621
     17 H          -3.8036   -0.8725    1.0193 H       1  UNL1        0.0471
     18 H          -3.8038    0.8749    1.0173 H       1  UNL1        0.0471
     19 H           3.4341   -0.8599    1.8028 H       1  UNL1        0.1442
     20 H           3.4347    0.8619    1.8014 H       1  UNL1        0.1442
     21 H          -3.9033   -0.8186   -1.3907 H       1  UNL1        0.1185
     22 H          -3.9035    0.8155   -1.3926 H       1  UNL1        0.1185
@<TRIPOS>BOND
     1     1     2    2
     2     1     3    2
     3     1     4    1
     4     1     6    1
     5     4    19    1
     6     4    20    1
     7     5    12    1
     8     5    21    1
     9     5    22    1
    10     6     8   ar
    11     6     9   ar
    12     7    10   ar
    13     7    11   ar
    14     7    12    1
    15     8    10   ar
    16     8    13    1
    17     9    11   ar
    18     9    14    1
    19    10    15    1
    20    11    16    1
    21    12    17    1
    22    12    18    1
