@<TRIPOS>MOLECULE
11993740
 52 55 0 0 0
SMALL
GASTEIGER

@<TRIPOS>ATOM
      1 O          -0.9962    1.4566   -0.2344 O.3     1  UNL1       -0.4912
      2 O           3.3881   -2.6190    0.4030 O.2     1  UNL1       -0.2863
      3 O           5.6410   -1.6625   -0.5297 O.3     1  UNL1       -0.4770
      4 O           6.0329    0.4734    0.1877 O.2     1  UNL1       -0.2449
      5 N           1.8880    1.1092   -0.2837 N.ar    1  UNL1       -0.3397
      6 N          -2.6732   -0.6352    0.2555 N.pl3   1  UNL1       -0.3253
      7 N          -4.3183    1.8374    0.8164 N.3     1  UNL1       -0.3259
      8 C           1.4752    2.5076   -0.5460 C.3     1  UNL1        0.0348
      9 C           2.0251    3.6298    0.2681 C.3     1  UNL1       -0.0302
     10 C           0.5849    3.2315    0.4069 C.3     1  UNL1       -0.0302
     11 C          -4.8332   -0.6154   -0.9426 C.3     1  UNL1       -0.0267
     12 C          -4.5989    0.4947    1.3314 C.3     1  UNL1        0.0209
     13 C          -5.5289   -0.2677    0.3810 C.3     1  UNL1       -0.0323
     14 C          -3.5207   -1.3729   -0.6885 C.3     1  UNL1        0.0150
     15 C          -3.2879   -0.2728    1.5419 C.3     1  UNL1        0.0275
     16 C           0.9719    0.0482   -0.0330 C.ar    1  UNL1        0.0971
     17 C          -1.2872   -0.8288    0.2362 C.ar    1  UNL1        0.0741
     18 C          -0.4195    0.2380   -0.0142 C.ar    1  UNL1        0.1651
     19 C           3.2452    0.8517   -0.2879 C.ar    1  UNL1        0.0232
     20 C           1.4637   -1.2529    0.2085 C.ar    1  UNL1        0.0497
     21 C          -5.7613   -1.4332   -1.8395 C.3     1  UNL1       -0.0609
     22 C          -0.7821   -2.1042    0.4725 C.ar    1  UNL1       -0.0363
     23 C           3.8146   -0.3404   -0.0719 C.ar    1  UNL1        0.1220
     24 C           0.5934   -2.3208    0.4595 C.ar    1  UNL1       -0.0469
     25 C           2.9293   -1.5020    0.1978 C.ar    1  UNL1        0.2035
     26 C           5.2750   -0.4321   -0.1123 C.2     1  UNL1        0.3420
     27 C          -1.3206    1.7818   -1.5828 C.3     1  UNL1        0.0790
     28 H           1.3651    2.7066   -1.6070 H       1  UNL1        0.0528
     29 H           2.2440    4.5620   -0.2384 H       1  UNL1        0.0286
     30 H           2.6821    3.4112    1.1010 H       1  UNL1        0.0286
     31 H           0.3249    2.8019    1.3682 H       1  UNL1        0.0286
     32 H          -0.1390    3.9419    0.0251 H       1  UNL1        0.0286
     33 H          -4.6007    0.3148   -1.4763 H       1  UNL1        0.0314
     34 H          -5.1030    0.6108    2.2977 H       1  UNL1        0.0474
     35 H          -6.4338    0.3218    0.1858 H       1  UNL1        0.0284
     36 H          -5.8602   -1.1907    0.8753 H       1  UNL1        0.0284
     37 H          -3.7276   -2.3743   -0.2900 H       1  UNL1        0.0466
     38 H          -2.9966   -1.5019   -1.6443 H       1  UNL1        0.0466
     39 H          -2.5996    0.3328    2.1466 H       1  UNL1        0.0479
     40 H          -3.4849   -1.1894    2.1130 H       1  UNL1        0.0479
     41 H           3.8507    1.7268   -0.5050 H       1  UNL1        0.0819
     42 H          -5.2779   -1.6571   -2.7963 H       1  UNL1        0.0233
     43 H          -6.0359   -2.3831   -1.3685 H       1  UNL1        0.0233
     44 H          -6.6830   -0.8808   -2.0505 H       1  UNL1        0.0233
     45 H          -1.4452   -2.9415    0.6748 H       1  UNL1        0.0637
     46 H           0.9680   -3.3233    0.6474 H       1  UNL1        0.0626
     47 H          -3.7674    1.7753   -0.0381 H       1  UNL1        0.1185
     48 H          -3.7337    2.3405    1.4833 H       1  UNL1        0.1185
     49 H          -2.2464    1.2775   -1.8745 H       1  UNL1        0.0660
     50 H          -0.5266    1.4914   -2.2784 H       1  UNL1        0.0660
     51 H          -1.4863    2.8597   -1.6590 H       1  UNL1        0.0660
     52 H           6.6159   -1.7632   -0.5700 H       1  UNL1        0.2954
@<TRIPOS>BOND
     1     1    18    1
     2     1    27    1
     3     2    25    2
     4     3    26    1
     5     3    52    1
     6     4    26    2
     7     5     8    1
     8     5    16   ar
     9     5    19   ar
    10     6    14    1
    11     6    15    1
    12     6    17    1
    13     7    12    1
    14     7    47    1
    15     7    48    1
    16     8     9    1
    17     8    10    1
    18     8    28    1
    19     9    10    1
    20     9    29    1
    21     9    30    1
    22    10    31    1
    23    10    32    1
    24    11    13    1
    25    11    14    1
    26    11    21    1
    27    11    33    1
    28    12    13    1
    29    12    15    1
    30    12    34    1
    31    13    35    1
    32    13    36    1
    33    14    37    1
    34    14    38    1
    35    15    39    1
    36    15    40    1
    37    16    18   ar
    38    16    20   ar
    39    17    18   ar
    40    17    22   ar
    41    19    23   ar
    42    19    41    1
    43    20    24   ar
    44    20    25   ar
    45    21    42    1
    46    21    43    1
    47    21    44    1
    48    22    24   ar
    49    22    45    1
    50    23    25   ar
    51    23    26    1
    52    24    46    1
    53    27    49    1
    54    27    50    1
    55    27    51    1
