@<TRIPOS>MOLECULE
5326
 31 32 0 0 0
SMALL
GASTEIGER

@<TRIPOS>ATOM
      1 S           1.4467   -2.1155   -0.1092 S.O2    1  UNL1        0.0746
      2 O           2.5035   -2.8113    0.6155 O.2     1  UNL1       -0.1499
      3 O           1.1390   -2.5307   -1.4723 O.2     1  UNL1       -0.1499
      4 O          -4.1069    1.1518   -0.4920 O.3     1  UNL1       -0.4921
      5 N           0.0151   -2.1725    0.8478 N.pl3   1  UNL1       -0.1836
      6 N          -1.6829   -1.5570   -0.6697 N.ar    1  UNL1       -0.2180
      7 N          -1.3481   -0.3195    1.3709 N.ar    1  UNL1       -0.2180
      8 N           2.7801    3.6791   -0.1394 N.pl3   1  UNL1       -0.3580
      9 C           1.8388   -0.4142   -0.1182 C.ar    1  UNL1        0.1087
     10 C           2.6658    0.1161    0.8720 C.ar    1  UNL1       -0.0333
     11 C           1.3240    0.4151   -1.1147 C.ar    1  UNL1       -0.0333
     12 C           2.4635    2.3048   -0.1312 C.ar    1  UNL1        0.0247
     13 C           2.9780    1.4757    0.8656 C.ar    1  UNL1       -0.0392
     14 C           1.6364    1.7744   -1.1213 C.ar    1  UNL1       -0.0392
     15 C          -1.0701   -1.2971    0.4951 C.ar    1  UNL1        0.2349
     16 C          -3.0879    0.3298   -0.1606 C.ar    1  UNL1        0.1562
     17 C          -2.6956   -0.7172   -0.9692 C.ar    1  UNL1        0.0743
     18 C          -2.3711    0.4822    1.0088 C.ar    1  UNL1        0.0743
     19 C          -4.4284    2.2059    0.4219 C.3     1  UNL1        0.0789
     20 H           3.0718   -0.5088    1.6623 H       1  UNL1        0.0638
     21 H           0.6774    0.0246   -1.8954 H       1  UNL1        0.0638
     22 H           0.1734   -2.2237    1.8626 H       1  UNL1        0.1767
     23 H           3.6221    1.8775    1.6436 H       1  UNL1        0.0636
     24 H           1.2286    2.4102   -1.9031 H       1  UNL1        0.0636
     25 H          -3.1966   -0.9194   -1.9103 H       1  UNL1        0.0869
     26 H          -2.5662    1.2595    1.7384 H       1  UNL1        0.0869
     27 H           3.3779    4.0650    0.5793 H       1  UNL1        0.1423
     28 H           2.4053    4.2807   -0.8607 H       1  UNL1        0.1423
     29 H          -4.7566    1.8074    1.3877 H       1  UNL1        0.0660
     30 H          -5.2681    2.7629   -0.0055 H       1  UNL1        0.0660
     31 H          -3.5925    2.9051    0.5309 H       1  UNL1        0.0660
@<TRIPOS>BOND
     1     1     2    2
     2     1     3    2
     3     1     5    1
     4     1     9    1
     5     4    16    1
     6     4    19    1
     7     5    15    1
     8     5    22    1
     9     6    15   ar
    10     6    17   ar
    11     7    15   ar
    12     7    18   ar
    13     8    12    1
    14     8    27    1
    15     8    28    1
    16     9    10   ar
    17     9    11   ar
    18    10    13   ar
    19    10    20    1
    20    11    14   ar
    21    11    21    1
    22    12    13   ar
    23    12    14   ar
    24    13    23    1
    25    14    24    1
    26    16    17   ar
    27    16    18   ar
    28    17    25    1
    29    18    26    1
    30    19    29    1
    31    19    30    1
    32    19    31    1
