@<TRIPOS>MOLECULE
3037981
 91 92 0 0 0
SMALL
GASTEIGER

@<TRIPOS>ATOM
      1 O          -4.2362    4.7509    2.0093 O.3     1  UNK1       -0.3581
      2 O          -0.7624    2.8133    0.3225 O.2     1  UNK1       -0.2737
      3 O          -2.3399    0.0865    1.6030 O.2     3  UNK3       -0.2688
      4 O           1.5045   -0.4601   -2.5933 O.2     1  UNK1       -0.2737
      5 O           2.8693    3.2419    0.9364 O.2     0  UNK0       -0.2757
      6 OG          5.2194   -3.7400   -1.5701 O.3     2  SER2       -0.3927
      7 O           2.7231   -2.8762    0.8612 O.2     2  SER2       -0.2737
      8 O          -0.0771   -1.4144    0.2755 O.2     3  UNK3       -0.2733
      9 O          -0.8384   -5.4144    1.0261 O.3     3  UNK3       -0.3927
     10 O          -6.9990   -3.0143    0.5351 O.2     3  UNK3       -0.2527
     11 N          -4.9296    2.1014   -0.0841 N.pl3   1  UNK1       -0.2334
     12 N          -2.7572    0.3349   -0.6854 N.am    3  UNK3       -0.2962
     13 N          -0.3816    1.8045   -1.7319 N.am    1  UNK1       -0.3114
     14 N          -5.9489    4.2228    0.3305 N.2     1  UNK1       -0.0847
     15 N           3.2665    2.0403   -1.0121 N.am    1  UNK1       -0.3026
     16 N          -7.2028    2.3379   -0.2379 N.pl3   1  UNK1       -0.2517
     17 N           3.2096   -0.7192   -1.0439 N.am    2  SER2       -0.3005
     18 N           7.4085    3.0755   -0.3588 N.3     0  UNK0       -0.3268
     19 N          -1.9927   -2.7349    0.1023 N.am    3  UNK3       -0.2788
     20 N           1.3882   -3.3003   -1.0005 N.am    3  UNK3       -0.3005
     21 N           8.1080   -1.1538    2.8333 N.3     0  UNK0       -0.3300
     22 N          -4.7148   -3.4075    0.2753 N.am    3  UNK3       -0.2743
     23 N          -6.2240   -5.1441    0.1715 N.am    3  UNK3       -0.3131
     24 C          -3.5639    2.5481    0.1074 C.3     1  UNK1        0.1013
     25 C          -2.6301    1.7804   -0.8185 C.3     1  UNK1        0.1316
     26 C          -3.5195    4.0531   -0.1752 C.3     1  UNK1        0.0433
     27 C          -4.6117    4.7661    0.6311 C.3     1  UNK1        0.2145
     28 C          -1.1686    2.1855   -0.6532 C.2     1  UNK1        0.2367
     29 C          -6.0072    2.9585    0.0288 C.cat   1  UNK1        0.3651
     30 C           1.9859    1.3819   -1.0955 C.3     1  UNK1        0.1149
     31 C           0.9992    2.2349   -1.8896 C.3     1  UNK1        0.0386
     32 C           6.1145    2.4317   -0.1131 C.3     0  UNK0        0.0131
     33 C          -2.6528   -0.3633    0.5062 C.2     3  UNK3        0.2601
     34 C           5.0036    3.4935   -0.1824 C.3     0  UNK0        0.0391
     35 C           2.2213    0.0012   -1.7067 C.2     1  UNK1        0.2355
     36 C           6.1346    1.7316    1.2613 C.3     0  UNK0       -0.0362
     37 C           3.6051    2.9237    0.0059 C.2     0  UNK0        0.2151
     38 CA          3.4781   -2.1283   -1.3033 C.3     2  SER2        0.1226
     39 C           7.1740    0.6109    1.4135 C.3     0  UNK0       -0.0392
     40 C          -2.9753   -1.8024    0.3378 C.2     3  UNK3        0.1100
     41 C           0.1604   -3.7419   -0.3499 C.3     3  UNK3        0.1229
     42 C           2.5286   -2.8443   -0.3520 C.2     2  SER2        0.2363
     43 C           7.1007   -0.1005    2.7643 C.3     0  UNK0       -0.0069
     44 CB          4.9280   -2.4734   -1.0050 C.3     2  SER2        0.0711
     45 C          -0.6256   -2.4878    0.0349 C.2     3  UNK3        0.2399
     46 C          -4.2715   -2.1314    0.4104 C.2     3  UNK3        0.0240
     47 C           0.3551   -4.6779    0.8337 C.3     3  UNK3        0.0711
     48 C          -6.0557   -3.7808    0.3450 C.2     3  UNK3        0.3009
     49 H          -3.2953    2.3814    1.1569 H       1  UNK1        0.0694
     50 H          -2.9123    1.9950   -1.8589 H       1  UNK1        0.0628
     51 H          -3.6857    4.2402   -1.2444 H       1  UNK1        0.0357
     52 H          -2.5453    4.4762    0.0884 H       1  UNK1        0.0357
     53 H          -4.6145    5.8188    0.3263 H       1  UNK1        0.1046
     54 H          -5.0892    1.1124   -0.2513 H       1  UNK1        0.2447
     55 H          -2.9992   -0.1782   -1.5287 H       3  UNK3        0.1499
     56 H           1.6107    1.2272   -0.0758 H       1  UNK1        0.0610
     57 H           1.2252    2.2087   -2.9617 H       1  UNK1        0.0485
     58 H           1.0544    3.2822   -1.5690 H       1  UNK1        0.0485
     59 H          -0.7924    1.2463   -2.4744 H       1  UNK1        0.1488
     60 H           5.9571    1.6751   -0.8904 H       0  UNK0        0.0463
     61 H           3.9276    1.8843   -1.7677 H       1  UNK1        0.1495
     62 H           5.0241    4.0056   -1.1533 H       0  UNK0        0.0374
     63 H           5.1580    4.2615    0.5862 H       0  UNK0        0.0374
     64 H           6.3003    2.4767    2.0511 H       0  UNK0        0.0281
     65 H           5.1469    1.2949    1.4547 H       0  UNK0        0.0281
     66 H          -4.9955    5.0994    2.5063 H       1  UNK1        0.2134
     67 HA          3.2332   -2.3603   -2.3458 H       2  SER2        0.0618
     68 H          -8.0783    2.8483   -0.1996 H       1  UNK1        0.2412
     69 H          -7.2472    1.3534   -0.4775 H       1  UNK1        0.2412
     70 H           8.1816    1.0251    1.2883 H       0  UNK0        0.0278
     71 H           7.0266   -0.1195    0.6075 H       0  UNK0        0.0278
     72 H           3.6991   -0.2754   -0.2714 H       2  SER2        0.1496
     73 H          -0.4060   -4.2599   -1.1353 H       3  UNK3        0.0618
     74 H           8.1365    2.3682   -0.4467 H       0  UNK0        0.1185
     75 H           7.3827    3.5628   -1.2538 H       0  UNK0        0.1185
     76 H           7.2635    0.6149    3.5777 H       0  UNK0        0.0422
     77 H           6.1088   -0.5439    2.9015 H       0  UNK0        0.0422
     78 HB1         5.1555   -2.4997    0.0659 H       2  SER2        0.0580
     79 HB2         5.6013   -1.7443   -1.4682 H       2  SER2        0.0580
     80 H          -2.2918   -3.6932   -0.0472 H       3  UNK3        0.1550
     81 H           1.3442   -3.2120   -2.0114 H       3  UNK3        0.1496
     82 H          -5.0329   -1.3782    0.5884 H       3  UNK3        0.0803
     83 H           1.1639   -5.3905    0.6411 H       3  UNK3        0.0580
     84 H           0.5764   -4.1308    1.7559 H       3  UNK3        0.0580
     85 H           9.0374   -0.7470    2.7357 H       0  UNK0        0.1182
     86 H           8.0811   -1.5865    3.7556 H       0  UNK0        0.1182
     87 H           4.6569   -4.3983   -1.1276 H       2  SER2        0.2095
     88 H          -4.0420   -4.1487    0.1147 H       3  UNK3        0.1559
     89 H          -0.6914   -6.0071    1.7828 H       3  UNK3        0.2095
     90 H          -7.1461   -5.5663    0.1961 H       3  UNK3        0.1465
     91 H          -5.4359   -5.7634    0.0155 H       3  UNK3        0.1465
@<TRIPOS>BOND
     1     1    27    1
     2     1    66    1
     3     2    28    2
     4     3    33    2
     5     4    35    2
     6     5    37    2
     7     6    44    1
     8     6    87    1
     9     7    42    2
    10     8    45    2
    11     9    47    1
    12     9    89    1
    13    10    48    2
    14    11    24    1
    15    11    29    1
    16    11    54    1
    17    12    25    1
    18    12    33   am
    19    12    55    1
    20    13    28   am
    21    13    31    1
    22    13    59    1
    23    14    27    1
    24    14    29    2
    25    15    30    1
    26    15    37   am
    27    15    61    1
    28    16    29    1
    29    16    68    1
    30    16    69    1
    31    17    35   am
    32    17    38    1
    33    17    72    1
    34    18    32    1
    35    18    74    1
    36    18    75    1
    37    19    40    1
    38    19    45   am
    39    19    80    1
    40    20    41    1
    41    20    42   am
    42    20    81    1
    43    21    43    1
    44    21    85    1
    45    21    86    1
    46    22    46    1
    47    22    48   am
    48    22    88    1
    49    23    48   am
    50    23    90    1
    51    23    91    1
    52    24    25    1
    53    24    26    1
    54    24    49    1
    55    25    28    1
    56    25    50    1
    57    26    27    1
    58    26    51    1
    59    26    52    1
    60    27    53    1
    61    30    31    1
    62    30    35    1
    63    30    56    1
    64    31    57    1
    65    31    58    1
    66    32    34    1
    67    32    36    1
    68    32    60    1
    69    33    40    1
    70    34    37    1
    71    34    62    1
    72    34    63    1
    73    36    39    1
    74    36    64    1
    75    36    65    1
    76    38    42    1
    77    38    44    1
    78    38    67    1
    79    39    43    1
    80    39    70    1
    81    39    71    1
    82    40    46    2
    83    41    45    1
    84    41    47    1
    85    41    73    1
    86    43    76    1
    87    43    77    1
    88    44    78    1
    89    44    79    1
    90    46    82    1
    91    47    83    1
    92    47    84    1
