@<TRIPOS>MOLECULE
5287620
 44 45 0 0 0
SMALL
GASTEIGER

@<TRIPOS>ATOM
      1 O          -4.6191   -1.2961   -0.8747 O.3     1  UNL1       -0.3918
      2 O          -2.3178    2.9398   -0.4867 O.3     1  UNL1       -0.3875
      3 O           2.7832    0.6261    0.6780 O.3     1  UNL1       -0.4586
      4 O           2.5230    1.9099   -1.2336 O.2     1  UNL1       -0.2456
      5 C          -2.4126    0.5587   -0.1046 C.3     1  UNL1       -0.0027
      6 C          -1.8404   -0.6986    0.6030 C.3     1  UNL1       -0.0150
      7 C          -3.8637    0.6270    0.3950 C.3     1  UNL1       -0.0208
      8 C          -3.0662   -1.5657    0.9714 C.3     1  UNL1       -0.0202
      9 C          -4.2885   -0.8318    0.4289 C.3     1  UNL1        0.0562
     10 C          -1.6440    1.8661    0.1708 C.3     1  UNL1        0.0773
     11 C          -0.8630   -1.4678   -0.2519 C.2     1  UNL1       -0.0844
     12 C          -0.2353    1.8047   -0.3459 C.2     1  UNL1       -0.0489
     13 C           0.3752   -1.8088    0.1406 C.2     1  UNL1       -0.0877
     14 C           1.3335   -2.6011   -0.7056 C.3     1  UNL1       -0.0346
     15 C           2.5799   -1.8086   -1.1194 C.3     1  UNL1       -0.0463
     16 C           3.5756   -1.5535    0.0274 C.3     1  UNL1       -0.0156
     17 C           0.8331    1.7609    0.4597 C.2     1  UNL1        0.0210
     18 C           3.9462   -0.0701    0.1828 C.3     1  UNL1        0.1006
     19 C           2.1489    1.4952   -0.1494 C.2     1  UNL1        0.3320
     20 C           5.0521    0.1135    1.2143 C.3     1  UNL1       -0.0277
     21 H          -2.4504    0.3923   -1.1920 H       1  UNL1        0.0335
     22 H          -1.3522   -0.3993    1.5407 H       1  UNL1        0.0347
     23 H          -3.9063    1.0594    1.4017 H       1  UNL1        0.0294
     24 H          -4.4877    1.2253   -0.2767 H       1  UNL1        0.0294
     25 H          -2.9969   -2.5905    0.5901 H       1  UNL1        0.0296
     26 H          -3.1328   -1.6221    2.0652 H       1  UNL1        0.0296
     27 H          -5.1673   -0.9776    1.0647 H       1  UNL1        0.0593
     28 H          -1.6566    2.0904    1.2438 H       1  UNL1        0.0641
     29 H          -1.2067   -1.7690   -1.2390 H       1  UNL1        0.0572
     30 H          -0.1127    1.7237   -1.4238 H       1  UNL1        0.0600
     31 H          -4.8376   -2.2407   -0.8010 H       1  UNL1        0.2098
     32 H           0.7153   -1.5225    1.1324 H       1  UNL1        0.0569
     33 H          -2.3696    2.7306   -1.4353 H       1  UNL1        0.2102
     34 H           1.6291   -3.5035   -0.1574 H       1  UNL1        0.0307
     35 H           0.8283   -2.9463   -1.6165 H       1  UNL1        0.0307
     36 H           3.1028   -2.3912   -1.8892 H       1  UNL1        0.0269
     37 H           2.2773   -0.8770   -1.6097 H       1  UNL1        0.0269
     38 H           3.1677   -1.9269    0.9745 H       1  UNL1        0.0301
     39 H           4.4866   -2.1311   -0.1736 H       1  UNL1        0.0301
     40 H           0.7443    1.7754    1.5398 H       1  UNL1        0.0686
     41 H           4.2845    0.3380   -0.7769 H       1  UNL1        0.0731
     42 H           5.9676   -0.4040    0.9124 H       1  UNL1        0.0265
     43 H           5.2790    1.1774    1.3426 H       1  UNL1        0.0265
     44 H           4.7423   -0.2627    2.1956 H       1  UNL1        0.0265
@<TRIPOS>BOND
     1     1     9    1
     2     1    31    1
     3     2    10    1
     4     2    33    1
     5     3    18    1
     6     3    19    1
     7     4    19    2
     8     5     6    1
     9     5     7    1
    10     5    10    1
    11     5    21    1
    12     6     8    1
    13     6    11    1
    14     6    22    1
    15     7     9    1
    16     7    23    1
    17     7    24    1
    18     8     9    1
    19     8    25    1
    20     8    26    1
    21     9    27    1
    22    10    12    1
    23    10    28    1
    24    11    13    2
    25    11    29    1
    26    12    17    2
    27    12    30    1
    28    13    14    1
    29    13    32    1
    30    14    15    1
    31    14    34    1
    32    14    35    1
    33    15    16    1
    34    15    36    1
    35    15    37    1
    36    16    18    1
    37    16    38    1
    38    16    39    1
    39    17    19    1
    40    17    40    1
    41    18    20    1
    42    18    41    1
    43    20    42    1
    44    20    43    1
    45    20    44    1
