@<TRIPOS>MOLECULE
253602
 38 39 0 0 0
SMALL
GASTEIGER

@<TRIPOS>ATOM
      1 O          -1.7335   -0.8982   -0.6627 O.3     1  UNL1       -0.4573
      2 O          -2.8712    0.6748    2.3348 O.3     1  UNL1       -0.3868
      3 O          -2.3519   -2.4793    0.9041 O.2     1  UNL1       -0.2512
      4 O           4.7312   -0.3094    0.7497 O.3     1  UNL1       -0.4951
      5 N          -2.5916    1.9213   -0.7843 N.3     1  UNL1       -0.3071
      6 C          -1.3046    1.4544   -0.2430 C.3     1  UNL1        0.0515
      7 C          -1.6500    0.0927    0.3551 C.3     1  UNL1        0.1454
      8 C          -3.0262    0.3232    0.9647 C.3     1  UNL1        0.1059
      9 C          -3.6080    1.5091    0.1958 C.3     1  UNL1        0.0259
     10 C          -0.2245    1.4260   -1.3150 C.3     1  UNL1       -0.0087
     11 C           1.0983    0.9632   -0.7641 C.ar    1  UNL1       -0.0455
     12 C           1.9889    1.8956   -0.2509 C.ar    1  UNL1       -0.0551
     13 C           1.4070   -0.3895   -0.7770 C.ar    1  UNL1       -0.0551
     14 C          -2.0973   -2.1481   -0.2460 C.2     1  UNL1        0.3043
     15 C           3.2140    1.4662    0.2596 C.ar    1  UNL1       -0.0197
     16 C           2.6319   -0.8190   -0.2662 C.ar    1  UNL1       -0.0197
     17 C           3.5355    0.1090    0.2520 C.ar    1  UNL1        0.1201
     18 C          -2.1441   -3.0813   -1.4179 C.3     1  UNL1        0.0332
     19 C           4.9961   -1.7109    0.7111 C.3     1  UNL1        0.0788
     20 H          -1.0070    2.1435    0.5594 H       1  UNL1        0.0501
     21 H          -0.9036   -0.2074    1.1010 H       1  UNL1        0.0776
     22 H          -3.7173   -0.5206    0.9116 H       1  UNL1        0.0644
     23 H          -4.5212    1.2220   -0.3364 H       1  UNL1        0.0451
     24 H          -3.8543    2.3493    0.8540 H       1  UNL1        0.0451
     25 H          -2.7734    1.4313   -1.6613 H       1  UNL1        0.1224
     26 H          -0.1021    2.4299   -1.7447 H       1  UNL1        0.0329
     27 H          -0.5115    0.7900   -2.1632 H       1  UNL1        0.0329
     28 H          -2.2958    1.4566    2.3895 H       1  UNL1        0.2100
     29 H           1.7471    2.9546   -0.2382 H       1  UNL1        0.0621
     30 H           0.7302   -1.1240   -1.1998 H       1  UNL1        0.0621
     31 H           3.9134    2.1936    0.6624 H       1  UNL1        0.0654
     32 H           2.8200   -1.8863   -0.3083 H       1  UNL1        0.0654
     33 H          -1.1546   -3.1487   -1.8769 H       1  UNL1        0.0342
     34 H          -2.8820   -2.7283   -2.1427 H       1  UNL1        0.0342
     35 H          -2.4392   -4.0777   -1.0768 H       1  UNL1        0.0342
     36 H           4.2851   -2.2719    1.3272 H       1  UNL1        0.0660
     37 H           5.9883   -1.8645    1.1479 H       1  UNL1        0.0660
     38 H           5.0383   -2.0841   -0.3178 H       1  UNL1        0.0660
@<TRIPOS>BOND
     1     1     7    1
     2     1    14    1
     3     2     8    1
     4     2    28    1
     5     3    14    2
     6     4    17    1
     7     4    19    1
     8     5     6    1
     9     5     9    1
    10     5    25    1
    11     6     7    1
    12     6    10    1
    13     6    20    1
    14     7     8    1
    15     7    21    1
    16     8     9    1
    17     8    22    1
    18     9    23    1
    19     9    24    1
    20    10    11    1
    21    10    26    1
    22    10    27    1
    23    11    12   ar
    24    11    13   ar
    25    12    15   ar
    26    12    29    1
    27    13    16   ar
    28    13    30    1
    29    14    18    1
    30    15    17   ar
    31    15    31    1
    32    16    17   ar
    33    16    32    1
    34    18    33    1
    35    18    34    1
    36    18    35    1
    37    19    36    1
    38    19    37    1
    39    19    38    1
