@<TRIPOS>MOLECULE
656580
 43 43 0 0 0
SMALL
GASTEIGER

@<TRIPOS>ATOM
      1 CL         -2.7681   -5.7374   -0.5996 Cl      1  UNL1       -0.0945
      2 CL         -4.5362   -3.7636    0.6288 Cl      1  UNL1       -0.0945
      3 O           1.0664   -2.4201   -1.8766 O.3     1  UNL1       -0.3852
      4 O          -1.4022    0.4596    0.1639 O.3     1  UNL1       -0.4627
      5 O          -1.5499   -3.7586    1.4490 O.2     1  UNL1       -0.2729
      6 O          -1.6805    1.7698    2.0413 O.2     1  UNL1       -0.2508
      7 O           5.8915    2.3796   -0.0602 O.co2   1  UNL1       -0.5760
      8 O           6.3955    0.6389    1.1788 O.2     1  UNL1        0.0414
      9 O          -4.3111    5.7452    0.1052 O.3     1  UNL1       -0.4806
     10 O          -4.0445    4.2839   -1.6141 O.2     1  UNL1       -0.2510
     11 N          -1.3200   -2.3936   -0.4107 N.am    1  UNL1       -0.3042
     12 N           5.6213    1.2426    0.3972 N.pl3   1  UNL1        0.0796
     13 C          -0.1670   -1.6574    0.0720 C.3     1  UNL1        0.0872
     14 C           0.7258   -1.2532   -1.1208 C.3     1  UNL1        0.1016
     15 C          -0.6395   -0.4781    0.9305 C.3     1  UNL1        0.1134
     16 C           2.0245   -0.5918   -0.7182 C.ar    1  UNL1       -0.0169
     17 C           2.3284    0.6626   -1.2194 C.ar    1  UNL1       -0.0497
     18 C           2.8829   -1.2536    0.1436 C.ar    1  UNL1       -0.0497
     19 C          -1.9180   -3.3946    0.3331 C.2     1  UNL1        0.2462
     20 C           3.5261    1.2734   -0.8479 C.ar    1  UNL1        0.0159
     21 C           4.0806   -0.6427    0.5151 C.ar    1  UNL1        0.0159
     22 C           4.4022    0.6207    0.0193 C.ar    1  UNL1        0.2732
     23 C          -1.8643    1.5456    0.8531 C.2     1  UNL1        0.3077
     24 C          -2.6462    2.4282   -0.0960 C.3     1  UNL1        0.0550
     25 C          -3.0999   -4.0120   -0.3770 C.3     1  UNL1        0.1830
     26 C          -3.1366    3.7172    0.5524 C.3     1  UNL1        0.0548
     27 C          -3.8612    4.5894   -0.4428 C.2     1  UNL1        0.3052
     28 H           0.3855   -2.3459    0.7230 H       1  UNL1        0.0561
     29 H           0.1564   -0.6041   -1.7979 H       1  UNL1        0.0663
     30 H           0.2228    0.0370    1.3697 H       1  UNL1        0.0717
     31 H          -1.2670   -0.8478    1.7514 H       1  UNL1        0.0717
     32 H          -1.7289   -2.1114   -1.2966 H       1  UNL1        0.1493
     33 H           1.6532    1.1807   -1.8943 H       1  UNL1        0.0623
     34 H           2.6561   -2.2428    0.5292 H       1  UNL1        0.0623
     35 H           1.6952   -2.1582   -2.5709 H       1  UNL1        0.2103
     36 H           3.7434    2.2582   -1.2534 H       1  UNL1        0.0685
     37 H           4.7402   -1.1820    1.1902 H       1  UNL1        0.0685
     38 H          -3.5005    1.8509   -0.4689 H       1  UNL1        0.0383
     39 H          -1.9940    2.6686   -0.9444 H       1  UNL1        0.0383
     40 H          -3.2835   -3.5666   -1.3579 H       1  UNL1        0.0732
     41 H          -2.2874    4.2828    0.9520 H       1  UNL1        0.0383
     42 H          -3.8218    3.4855    1.3753 H       1  UNL1        0.0383
     43 H          -4.7889    6.2989   -0.5485 H       1  UNL1        0.2951
@<TRIPOS>BOND
     1     1    25    1
     2     2    25    1
     3     3    14    1
     4     3    35    1
     5     4    15    1
     6     4    23    1
     7     5    19    2
     8     6    23    2
     9     7    12    1
    10     8    12    2
    11     9    27    1
    12     9    43    1
    13    10    27    2
    14    11    13    1
    15    11    19   am
    16    11    32    1
    17    12    22    1
    18    13    14    1
    19    13    15    1
    20    13    28    1
    21    14    16    1
    22    14    29    1
    23    15    30    1
    24    15    31    1
    25    16    17   ar
    26    16    18   ar
    27    17    20   ar
    28    17    33    1
    29    18    21   ar
    30    18    34    1
    31    19    25    1
    32    20    22   ar
    33    20    36    1
    34    21    22   ar
    35    21    37    1
    36    23    24    1
    37    24    26    1
    38    24    38    1
    39    24    39    1
    40    25    40    1
    41    26    27    1
    42    26    41    1
    43    26    42    1
