@<TRIPOS>MOLECULE
27200
 36 36 0 0 0
SMALL
GASTEIGER

@<TRIPOS>ATOM
      1 CL         -5.9637    1.9100    0.1616 Cl      1  UNL1       -0.0945
      2 CL         -6.4145   -0.8522   -0.6741 Cl      1  UNL1       -0.0945
      3 S           5.1701    0.2451   -0.4055 S.O2    1  UNL1       -0.0059
      4 O          -0.9955    1.2945    1.6705 O.3     1  UNL1       -0.3853
      5 O          -1.5512   -2.7081    0.1934 O.3     1  UNL1       -0.3931
      6 O           5.4337    1.5561   -0.9813 O.2     1  UNL1       -0.1696
      7 O           5.9676   -0.2235    0.7198 O.2     1  UNL1       -0.1696
      8 O          -3.8432    0.5680   -1.6550 O.2     1  UNL1       -0.2729
      9 N          -2.9821   -0.1838    0.3619 N.am    1  UNL1       -0.3052
     10 CA         -1.6030   -0.2786   -0.0778 C.3     1  UNL1        0.0762
     11 C          -0.6599    0.0222    1.1070 C.3     1  UNL1        0.1006
     12 C           0.8026    0.0778    0.7278 C.ar    1  UNL1       -0.0172
     13 C          -1.3709   -1.6451   -0.7335 C.3     1  UNL1        0.0653
     14 C           1.7037   -0.7457    1.3815 C.ar    1  UNL1       -0.0543
     15 C           1.2112    0.9509   -0.2664 C.ar    1  UNL1       -0.0543
     16 C           3.4812    0.1794    0.0319 C.ar    1  UNL1        0.0879
     17 C           3.0528   -0.6946    1.0310 C.ar    1  UNL1       -0.0366
     18 C           2.5604    1.0020   -0.6169 C.ar    1  UNL1       -0.0366
     19 C          -3.9953    0.2379   -0.4797 C.2     1  UNL1        0.2462
     20 C           5.3389   -0.9639   -1.6990 C.3     1  UNL1        0.0596
     21 C          -5.3429    0.2518    0.2030 C.3     1  UNL1        0.1830
     22 HA         -1.4739    0.4896   -0.8500 H       1  UNL1        0.0550
     23 H          -0.8169   -0.7175    1.9021 H       1  UNL1        0.0663
     24 H1         -0.3580   -1.7152   -1.1426 H       1  UNL1        0.0576
     25 H2         -2.0757   -1.7990   -1.5582 H       1  UNL1        0.0576
     26 H          -3.2082   -0.5102    1.2969 H       1  UNL1        0.1492
     27 H           1.3818   -1.4318    2.1595 H       1  UNL1        0.0622
     28 H           0.5118    1.6074   -0.7748 H       1  UNL1        0.0622
     29 H           3.7518   -1.3487    1.5445 H       1  UNL1        0.0637
     30 H           2.8707    1.6872   -1.4007 H       1  UNL1        0.0637
     31 H          -1.9373    1.2681    1.9107 H       1  UNL1        0.2103
     32 H           5.0656   -1.9452   -1.3065 H       1  UNL1        0.0468
     33 H           4.6916   -0.6847   -2.5325 H       1  UNL1        0.0468
     34 H           6.3817   -0.9697   -2.0234 H       1  UNL1        0.0468
     35 H          -1.3878   -3.5373   -0.2876 H       1  UNL1        0.2095
     36 H          -5.2918   -0.0714    1.2457 H       1  UNL1        0.0732
@<TRIPOS>BOND
     1     1    21    1
     2     2    21    1
     3     3     6    2
     4     3     7    2
     5     3    16    1
     6     3    20    1
     7     4    11    1
     8     4    31    1
     9     5    13    1
    10     5    35    1
    11     8    19    2
    12     9    10    1
    13     9    19   am
    14     9    26    1
    15    10    11    1
    16    10    13    1
    17    10    22    1
    18    11    12    1
    19    11    23    1
    20    12    14   ar
    21    12    15   ar
    22    13    24    1
    23    13    25    1
    24    14    17   ar
    25    14    27    1
    26    15    18   ar
    27    15    28    1
    28    16    17   ar
    29    16    18   ar
    30    17    29    1
    31    18    30    1
    32    19    21    1
    33    20    32    1
    34    20    33    1
    35    20    34    1
    36    21    36    1
