@<TRIPOS>MOLECULE
5388906
 68 72 0 0 0
SMALL
GASTEIGER

@<TRIPOS>ATOM
      1 BR          6.5659   -0.9627   -3.0049 Br      1  UNL1       -0.0503
      2 O          -0.6309   -0.8123   -1.4054 O.3     1  UNL1       -0.3830
      3 O           1.3636    1.7866    2.6500 O.3     1  UNL1       -0.4794
      4 N           0.4309   -4.5144    0.5611 N.3     1  UNL1       -0.3082
      5 N           3.3731    1.3541    1.5911 N.ar    1  UNL1       -0.2127
      6 C          -0.8150   -0.8215    0.0287 C.3     1  UNL1        0.1035
      7 C          -0.1778    0.5331    0.6059 C.3     1  UNL1        0.0472
      8 C           0.0215   -2.0486    0.5694 C.3     1  UNL1       -0.0061
      9 C          -2.2629   -0.9536    0.3885 C.ar    1  UNL1       -0.0075
     10 C           1.3498    0.6317    0.5720 C.ar    1  UNL1        0.0252
     11 C          -0.3742   -3.4293    0.0163 C.3     1  UNL1        0.0013
     12 C          -0.8292    1.8322    0.1133 C.ar    1  UNL1       -0.0367
     13 C          -3.2819   -0.4176   -0.4159 C.ar    1  UNL1       -0.0120
     14 C          -2.5699   -1.6363    1.5659 C.ar    1  UNL1       -0.0552
     15 C           2.0217    0.0926   -0.4886 C.ar    1  UNL1       -0.0436
     16 C          -4.6313   -0.5767   -0.0204 C.ar    1  UNL1       -0.0175
     17 C           2.0249    1.2440    1.5789 C.ar    1  UNL1        0.2190
     18 C          -1.8775    2.3525    0.8329 C.ar    1  UNL1       -0.0579
     19 C          -0.3366    2.4204   -1.0264 C.ar    1  UNL1       -0.0579
     20 C          -3.8971   -1.7930    1.9545 C.ar    1  UNL1       -0.0608
     21 C          -2.9913    0.2725   -1.6040 C.ar    1  UNL1       -0.0537
     22 C           3.4199    0.1843   -0.5153 C.ar    1  UNL1        0.0019
     23 C          -4.9221   -1.2672    1.1676 C.ar    1  UNL1       -0.0540
     24 C           4.0636    0.8324    0.5597 C.ar    1  UNL1        0.0749
     25 C           1.8464   -4.3185    0.2411 C.3     1  UNL1       -0.0130
     26 C          -0.0299   -5.8069    0.0496 C.3     1  UNL1       -0.0130
     27 C          -5.6505   -0.0410   -0.8246 C.ar    1  UNL1       -0.0540
     28 C          -2.4696    3.5336    0.3854 C.ar    1  UNL1       -0.0615
     29 C          -0.9285    3.6015   -1.4741 C.ar    1  UNL1       -0.0615
     30 C          -4.0164    0.7984   -2.3906 C.ar    1  UNL1       -0.0612
     31 C          -1.9950    4.1580   -0.7681 C.ar    1  UNL1       -0.0617
     32 C          -5.3436    0.6421   -2.0016 C.ar    1  UNL1       -0.0612
     33 C           4.1723   -0.3486   -1.5758 C.ar    1  UNL1       -0.0386
     34 C           5.4525    0.9236    0.5324 C.ar    1  UNL1       -0.0346
     35 C           5.5601   -0.2434   -1.5772 C.ar    1  UNL1        0.0186
     36 C           6.2008    0.3935   -0.5214 C.ar    1  UNL1       -0.0457
     37 C           2.1644    2.4049    3.6499 C.3     1  UNL1        0.0804
     38 H          -0.4157    0.4712    1.6808 H       1  UNL1        0.0430
     39 H           1.0519   -1.9193    0.2509 H       1  UNL1        0.0309
     40 H           0.0716   -2.0621    1.6644 H       1  UNL1        0.0309
     41 H          -0.2971   -3.4219   -1.0785 H       1  UNL1        0.0427
     42 H          -1.4248   -3.6292    0.2497 H       1  UNL1        0.0427
     43 H          -1.0888   -1.5846   -1.7784 H       1  UNL1        0.2107
     44 H          -1.8280   -2.0322    2.2479 H       1  UNL1        0.0621
     45 H           1.5394   -0.3669   -1.3399 H       1  UNL1        0.0629
     46 H          -2.2516    1.8785    1.7348 H       1  UNL1        0.0620
     47 H           0.4735    2.0031   -1.6123 H       1  UNL1        0.0620
     48 H          -4.1363   -2.3161    2.8760 H       1  UNL1        0.0618
     49 H          -2.0209    0.5183   -1.9979 H       1  UNL1        0.0624
     50 H          -5.9522   -1.3996    1.4921 H       1  UNL1        0.0624
     51 H           2.2838   -3.4983    0.8189 H       1  UNL1        0.0391
     52 H           2.4276   -5.2044    0.5250 H       1  UNL1        0.0391
     53 H           2.0149   -4.1394   -0.8272 H       1  UNL1        0.0391
     54 H           0.0676   -5.8793   -1.0398 H       1  UNL1        0.0391
     55 H           0.5399   -6.6260    0.5026 H       1  UNL1        0.0391
     56 H          -1.0799   -5.9746    0.3145 H       1  UNL1        0.0391
     57 H          -6.6948   -0.1506   -0.5395 H       1  UNL1        0.0624
     58 H          -3.3001    3.9667    0.9350 H       1  UNL1        0.0618
     59 H          -0.5634    4.0846   -2.3757 H       1  UNL1        0.0618
     60 H          -3.7801    1.3426   -3.3008 H       1  UNL1        0.0618
     61 H          -2.4573    5.0765   -1.1176 H       1  UNL1        0.0618
     62 H          -6.1409    1.0548   -2.6127 H       1  UNL1        0.0618
     63 H           3.6656   -0.8474   -2.4002 H       1  UNL1        0.0635
     64 H           5.9778    1.4179    1.3476 H       1  UNL1        0.0639
     65 H           7.2834    0.4885   -0.4990 H       1  UNL1        0.0629
     66 H           1.4956    2.7852    4.4278 H       1  UNL1        0.0660
     67 H           2.8429    1.6812    4.1140 H       1  UNL1        0.0660
     68 H           2.7200    3.2546    3.2392 H       1  UNL1        0.0660
@<TRIPOS>BOND
     1     1    35    1
     2     2     6    1
     3     2    43    1
     4     3    17    1
     5     3    37    1
     6     4    11    1
     7     4    25    1
     8     4    26    1
     9     5    17   ar
    10     5    24   ar
    11     6     7    1
    12     6     8    1
    13     6     9    1
    14     7    10    1
    15     7    12    1
    16     7    38    1
    17     8    11    1
    18     8    39    1
    19     8    40    1
    20     9    13   ar
    21     9    14   ar
    22    10    15   ar
    23    10    17   ar
    24    11    41    1
    25    11    42    1
    26    12    18   ar
    27    12    19   ar
    28    13    16   ar
    29    13    21   ar
    30    14    20   ar
    31    14    44    1
    32    15    22   ar
    33    15    45    1
    34    16    23   ar
    35    16    27   ar
    36    18    28   ar
    37    18    46    1
    38    19    29   ar
    39    19    47    1
    40    20    23   ar
    41    20    48    1
    42    21    30   ar
    43    21    49    1
    44    22    24   ar
    45    22    33   ar
    46    23    50    1
    47    24    34   ar
    48    25    51    1
    49    25    52    1
    50    25    53    1
    51    26    54    1
    52    26    55    1
    53    26    56    1
    54    27    32   ar
    55    27    57    1
    56    28    31   ar
    57    28    58    1
    58    29    31   ar
    59    29    59    1
    60    30    32   ar
    61    30    60    1
    62    31    61    1
    63    32    62    1
    64    33    35   ar
    65    33    63    1
    66    34    36   ar
    67    34    64    1
    68    35    36   ar
    69    36    65    1
    70    37    66    1
    71    37    67    1
    72    37    68    1
