@<TRIPOS>MOLECULE
439530
 63 66 0 0 0
SMALL
GASTEIGER

@<TRIPOS>ATOM
      1 O           0.0905   -0.7086   -0.8957 O.3     1  UNL1       -0.3464
      2 O           0.8006    2.7855   -0.3780 O.3     1  UNL1       -0.3854
      3 O          -0.8604   -1.9090   -3.2377 O.3     1  UNL1       -0.3924
      4 O          -3.6153    2.2837   -1.6652 O.2     1  UNL1       -0.2741
      5 O          -3.9381   -3.8621    1.2243 O.3     1  UNL1       -0.4951
      6 N           2.3060   -0.0424   -0.3851 N.ar    1  UNL1       -0.2855
      7 N          -1.7732    1.7838   -0.3488 N.am    1  UNL1       -0.3060
      8 N           4.1830   -0.9808   -1.1376 N.ar    1  UNL1       -0.2305
      9 N           3.1493    1.0177    1.6312 N.ar    1  UNL1       -0.2159
     10 N          -4.1669    3.9488    0.6690 N.3     1  UNL1       -0.3197
     11 N           6.8138   -0.6868    0.3583 N.pl3   1  UNL1       -0.3195
     12 N           5.5379    0.6065    1.9161 N.ar    1  UNL1       -0.2185
     13 C          -0.9047    1.3947   -1.4380 C.3     1  UNL1        0.0816
     14 C           0.5650    1.6026   -1.1143 C.3     1  UNL1        0.1210
     15 C          -0.9776   -0.1149   -1.6650 C.3     1  UNL1        0.1050
     16 C           0.8970    0.3409   -0.3306 C.3     1  UNL1        0.1659
     17 C          -0.7884   -0.4986   -3.1270 C.3     1  UNL1        0.0723
     18 C           3.2794    0.2838    0.5158 C.ar    1  UNL1        0.1674
     19 C          -3.0767    2.2019   -0.5623 C.2     1  UNL1        0.2305
     20 C           2.8973   -0.8026   -1.3591 C.ar    1  UNL1        0.1004
     21 C          -3.8034    2.5330    0.7377 C.3     1  UNL1        0.0863
     22 C           4.4353   -0.3070    0.0310 C.ar    1  UNL1        0.1477
     23 C          -5.0683    1.6751    0.8876 C.3     1  UNL1       -0.0039
     24 C           5.5955   -0.1243    0.7767 C.ar    1  UNL1        0.1518
     25 C          -4.7670    0.1975    0.9770 C.ar    1  UNL1       -0.0452
     26 C           4.3361    1.1244    2.2674 C.ar    1  UNL1        0.1205
     27 C          -4.7092   -0.5746   -0.1833 C.ar    1  UNL1       -0.0551
     28 C          -4.5461   -0.3947    2.2205 C.ar    1  UNL1       -0.0551
     29 C           6.8853   -1.4704   -0.8617 C.3     1  UNL1        0.0017
     30 C           8.0257   -0.4827    1.1313 C.3     1  UNL1        0.0017
     31 C          -4.4309   -1.9388   -0.1002 C.ar    1  UNL1       -0.0197
     32 C          -4.2677   -1.7590    2.3036 C.ar    1  UNL1       -0.0197
     33 C          -4.2101   -2.5310    1.1433 C.ar    1  UNL1        0.1201
     34 C          -3.8937   -4.5915   -0.0012 C.3     1  UNL1        0.0788
     35 H          -1.2044    1.9673   -2.3226 H       1  UNL1        0.0552
     36 H           1.1505    1.6477   -2.0411 H       1  UNL1        0.0658
     37 H          -1.9124   -0.5523   -1.3003 H       1  UNL1        0.0639
     38 H           0.6338    0.4333    0.7302 H       1  UNL1        0.0866
     39 H          -1.4226    1.6953    0.6003 H       1  UNL1        0.1492
     40 H          -1.5705   -0.0564   -3.7519 H       1  UNL1        0.0583
     41 H           0.1926   -0.1855   -3.4983 H       1  UNL1        0.0583
     42 H           0.4524    3.5281   -0.9004 H       1  UNL1        0.2101
     43 H           2.3516   -1.1954   -2.2062 H       1  UNL1        0.1030
     44 H          -3.1467    2.3785    1.6016 H       1  UNL1        0.0557
     45 H          -0.7395   -2.1296   -4.1769 H       1  UNL1        0.2095
     46 H          -5.6244    1.9795    1.7847 H       1  UNL1        0.0333
     47 H          -5.7552    1.8447    0.0466 H       1  UNL1        0.0333
     48 H          -4.6745    4.2124    1.5127 H       1  UNL1        0.1189
     49 H          -3.3211    4.5179    0.6580 H       1  UNL1        0.1189
     50 H           4.3271    1.7036    3.1845 H       1  UNL1        0.1048
     51 H          -4.8877   -0.1303   -1.1585 H       1  UNL1        0.0621
     52 H          -4.5860    0.1969    3.1312 H       1  UNL1        0.0621
     53 H           6.2516   -2.3618   -0.8017 H       1  UNL1        0.0428
     54 H           6.6216   -0.8693   -1.7385 H       1  UNL1        0.0428
     55 H           7.9030   -1.8360   -1.0414 H       1  UNL1        0.0428
     56 H           8.2669    0.5841    1.1930 H       1  UNL1        0.0428
     57 H           7.9051   -0.8751    2.1470 H       1  UNL1        0.0428
     58 H           8.8901   -0.9880    0.6879 H       1  UNL1        0.0428
     59 H          -4.4018   -2.4790   -1.0403 H       1  UNL1        0.0654
     60 H          -4.0958   -2.2146    3.2749 H       1  UNL1        0.0654
     61 H          -4.8662   -4.5909   -0.5053 H       1  UNL1        0.0660
     62 H          -3.0884   -4.2352   -0.6525 H       1  UNL1        0.0660
     63 H          -3.6646   -5.6323    0.2501 H       1  UNL1        0.0660
@<TRIPOS>BOND
     1     1    15    1
     2     1    16    1
     3     2    14    1
     4     2    42    1
     5     3    17    1
     6     3    45    1
     7     4    19    2
     8     5    33    1
     9     5    34    1
    10     6    16    1
    11     6    18   ar
    12     6    20   ar
    13     7    13    1
    14     7    19   am
    15     7    39    1
    16     8    20   ar
    17     8    22   ar
    18     9    18   ar
    19     9    26   ar
    20    10    21    1
    21    10    48    1
    22    10    49    1
    23    11    24    1
    24    11    29    1
    25    11    30    1
    26    12    24   ar
    27    12    26   ar
    28    13    14    1
    29    13    15    1
    30    13    35    1
    31    14    16    1
    32    14    36    1
    33    15    17    1
    34    15    37    1
    35    16    38    1
    36    17    40    1
    37    17    41    1
    38    18    22   ar
    39    19    21    1
    40    20    43    1
    41    21    23    1
    42    21    44    1
    43    22    24   ar
    44    23    25    1
    45    23    46    1
    46    23    47    1
    47    25    27   ar
    48    25    28   ar
    49    26    50    1
    50    27    31   ar
    51    27    51    1
    52    28    32   ar
    53    28    52    1
    54    29    53    1
    55    29    54    1
    56    29    55    1
    57    30    56    1
    58    30    57    1
    59    30    58    1
    60    31    33   ar
    61    31    59    1
    62    32    33   ar
    63    32    60    1
    64    34    61    1
    65    34    62    1
    66    34    63    1
