@<TRIPOS>MOLECULE
3374
 31 33 0 0 0
SMALL
GASTEIGER

@<TRIPOS>ATOM
      1 F          -3.2560    3.0859   -0.2159 F       1  UNL1       -0.2055
      2 O           1.7336    2.3970   -0.1490 O.2     1  UNL1       -0.2863
      3 O           3.9855    1.2594    0.5925 O.3     1  UNL1       -0.4770
      4 O           4.2703   -0.7833   -0.3957 O.2     1  UNL1       -0.2449
      5 N           0.1203   -1.3372    0.1508 N.ar    1  UNL1       -0.3426
      6 C          -0.4536   -2.6948    0.1368 C.3     1  UNL1        0.0320
      7 C          -1.8028   -2.7296    0.8591 C.3     1  UNL1       -0.0283
      8 C          -2.7894   -1.7382    0.2572 C.3     1  UNL1       -0.0238
      9 C          -0.7567   -0.2302    0.0719 C.ar    1  UNL1        0.0564
     10 C          -2.1583   -0.3787    0.1174 C.ar    1  UNL1       -0.0204
     11 C          -0.2294    1.0756   -0.0403 C.ar    1  UNL1        0.0490
     12 C          -0.5389   -3.2140   -1.3017 C.3     1  UNL1       -0.0442
     13 C           1.4872   -1.1208    0.1348 C.ar    1  UNL1        0.0231
     14 C          -2.9913    0.7456    0.0061 C.ar    1  UNL1       -0.0213
     15 C           2.0951    0.0676    0.0455 C.ar    1  UNL1        0.1220
     16 C           1.2433    1.2786   -0.0565 C.ar    1  UNL1        0.2035
     17 C          -1.0681    2.1918   -0.1361 C.ar    1  UNL1       -0.0136
     18 C          -2.4485    2.0219   -0.1186 C.ar    1  UNL1        0.1245
     19 C           3.5579    0.1034    0.0416 C.2     1  UNL1        0.3420
     20 H           0.2160   -3.3693    0.6881 H       1  UNL1        0.0525
     21 H          -1.6451   -2.4813    1.9177 H       1  UNL1        0.0288
     22 H          -2.2285   -3.7396    0.8324 H       1  UNL1        0.0288
     23 H          -3.6706   -1.6802    0.9072 H       1  UNL1        0.0314
     24 H          -3.1273   -2.0782   -0.7284 H       1  UNL1        0.0314
     25 H           0.4605   -3.2870   -1.7450 H       1  UNL1        0.0250
     26 H          -0.9897   -4.2114   -1.3285 H       1  UNL1        0.0250
     27 H          -1.1285   -2.5537   -1.9459 H       1  UNL1        0.0250
     28 H           2.0546   -2.0439    0.2019 H       1  UNL1        0.0819
     29 H          -4.0723    0.6299    0.0233 H       1  UNL1        0.0649
     30 H          -0.6651    3.1966   -0.2269 H       1  UNL1        0.0654
     31 H           4.9645    1.3204    0.6077 H       1  UNL1        0.2954
@<TRIPOS>BOND
     1     1    18    1
     2     2    16    2
     3     3    19    1
     4     3    31    1
     5     4    19    2
     6     5     6    1
     7     5     9   ar
     8     5    13   ar
     9     6     7    1
    10     6    12    1
    11     6    20    1
    12     7     8    1
    13     7    21    1
    14     7    22    1
    15     8    10    1
    16     8    23    1
    17     8    24    1
    18     9    10   ar
    19     9    11   ar
    20    10    14   ar
    21    11    16   ar
    22    11    17   ar
    23    12    25    1
    24    12    26    1
    25    12    27    1
    26    13    15   ar
    27    13    28    1
    28    14    18   ar
    29    14    29    1
    30    15    16   ar
    31    15    19    1
    32    17    18   ar
    33    17    30    1
