@<TRIPOS>MOLECULE
15574941
 43 45 0 0 0
SMALL
GASTEIGER

@<TRIPOS>ATOM
      1 S          -1.1475    0.8258    1.0526 S.3     1  UNL1       -0.1273
      2 O          -2.1882   -2.4319   -1.7252 O.2     1  UNL1       -0.2734
      3 O          -5.4114    1.0008   -1.0193 O.3     1  UNL1       -0.4793
      4 OXT        -5.3415   -1.0572   -0.0414 O.2     1  UNL1       -0.2489
      5 O           1.5785   -1.4267    1.8700 O.2     1  UNL1       -0.2728
      6 N          -2.6914   -1.0315    0.1068 N.am    1  UNL1       -0.2708
      7 N           0.4398   -1.5115   -0.1490 N.am    1  UNL1       -0.2995
      8 N           3.9493   -1.4476    0.5227 N.2     1  UNL1        0.0939
      9 N           4.8894   -1.7681   -0.2221 N.2     1  UNL1       -0.0136
     10 N           5.7598   -2.0666   -0.8961 N.2     1  UNL1       -0.3281
     11 C          -1.6856   -0.9195    1.1673 C.3     1  UNL1        0.1005
     12 C          -2.8389    1.3496    0.4742 C.3     1  UNL1        0.0417
     13 CA         -3.2995    0.1753   -0.4159 C.3     1  UNL1        0.1379
     14 CA         -0.8519   -1.9520    0.3964 C.3     1  UNL1        0.1278
     15 C          -2.0005   -1.9479   -0.6320 C.2     1  UNL1        0.2402
     16 C          -3.7096    1.5877    1.7154 C.3     1  UNL1       -0.0484
     17 C          -2.7103    2.6434   -0.3318 C.3     1  UNL1       -0.0484
     18 C          -4.7765   -0.0559   -0.4556 C.2     1  UNL1        0.3269
     19 C           1.5622   -1.2831    0.6488 C.2     1  UNL1        0.2498
     20 C           2.7841   -0.8518   -0.1473 C.3     1  UNL1        0.2295
     21 C           2.8702    0.6544   -0.2375 C.ar    1  UNL1       -0.0075
     22 C           2.2549    1.3062   -1.2935 C.ar    1  UNL1       -0.0559
     23 C           3.5622    1.3533    0.7377 C.ar    1  UNL1       -0.0559
     24 C           2.3340    2.6963   -1.3769 C.ar    1  UNL1       -0.0614
     25 C           3.6412    2.7435    0.6544 C.ar    1  UNL1       -0.0614
     26 C           3.0271    3.4149   -0.4029 C.ar    1  UNL1       -0.0617
     27 H          -2.0609   -1.2389    2.1437 H       1  UNL1        0.0640
     28 HA         -2.9508    0.2907   -1.4511 H       1  UNL1        0.0631
     29 HA         -0.7598   -2.9189    0.9056 H       1  UNL1        0.0622
     30 H          -3.2652    2.3406    2.3776 H       1  UNL1        0.0244
     31 H          -4.7019    1.9608    1.4385 H       1  UNL1        0.0244
     32 H          -3.8571    0.6729    2.3003 H       1  UNL1        0.0244
     33 H          -2.2940    3.4555    0.2760 H       1  UNL1        0.0244
     34 H          -2.0619    2.5156   -1.2065 H       1  UNL1        0.0244
     35 H          -3.6862    2.9817   -0.6959 H       1  UNL1        0.0244
     36 H           0.5306   -1.3608   -1.1509 H       1  UNL1        0.1496
     37 H           2.7053   -1.2721   -1.1607 H       1  UNL1        0.0764
     38 H          -6.3828    0.8687   -1.0537 H       1  UNL1        0.2951
     39 H           1.7114    0.7566   -2.0565 H       1  UNL1        0.0621
     40 H           4.0367    0.8567    1.5786 H       1  UNL1        0.0621
     41 H           1.8547    3.2191   -2.1994 H       1  UNL1        0.0618
     42 H           4.1778    3.3038    1.4145 H       1  UNL1        0.0618
     43 H           3.0875    4.4974   -0.4670 H       1  UNL1        0.0618
@<TRIPOS>BOND
     1     1    11    1
     2     1    12    1
     3     2    15    2
     4     3    18    1
     5     3    38    1
     6     4    18    2
     7     5    19    2
     8     6    11    1
     9     6    13    1
    10     6    15   am
    11     7    14    1
    12     7    19   am
    13     7    36    1
    14     8     9    2
    15     8    20    1
    16     9    10    2
    17    11    14    1
    18    11    27    1
    19    12    13    1
    20    12    16    1
    21    12    17    1
    22    13    18    1
    23    13    28    1
    24    14    15    1
    25    14    29    1
    26    16    30    1
    27    16    31    1
    28    16    32    1
    29    17    33    1
    30    17    34    1
    31    17    35    1
    32    19    20    1
    33    20    21    1
    34    20    37    1
    35    21    22   ar
    36    21    23   ar
    37    22    24   ar
    38    22    39    1
    39    23    25   ar
    40    23    40    1
    41    24    26   ar
    42    24    41    1
    43    25    26   ar
    44    25    42    1
    45    26    43    1
