@<TRIPOS>MOLECULE
3084092
 102 102 0 0 0
SMALL
GASTEIGER

@<TRIPOS>ATOM
      1 O          -3.0898    1.3119    0.5977 O.3     1  UNL1       -0.4503
      2 O           2.0777    1.5801    0.5466 O.3     1  UNL1       -0.4503
      3 O           0.1654   -2.5269   -0.8047 O.3     1  UNL1       -0.4503
      4 O          -1.1533    1.5715   -1.1055 O.2     1  UNL1       -0.2715
      5 O          -2.3962   -0.9739   -1.9114 O.2     1  UNL1       -0.2715
      6 O           3.8987   -0.8416   -0.6037 O.2     1  UNL1       -0.2715
      7 O          -1.8914   -0.0443    2.0272 O.2     1  UNL1       -0.2487
      8 O           3.0713    1.8556   -1.5119 O.2     1  UNL1       -0.2487
      9 O           0.9884   -4.6655   -0.9643 O.2     1  UNL1       -0.2487
     10 N           0.0489    3.1769    0.0464 N.am    1  UNL1       -0.2878
     11 N          -2.6539   -2.0283    0.1400 N.am    1  UNL1       -0.2878
     12 N           2.1678   -1.6278    0.7370 N.am    1  UNL1       -0.2878
     13 C           1.1074    3.1528   -0.9864 C.3     1  UNL1        0.1250
     14 C          -3.6075   -0.9899    0.5835 C.3     1  UNL1        0.1250
     15 C           2.2871   -3.0078    0.2217 C.3     1  UNL1        0.1250
     16 C           1.7527    4.5153   -1.2377 C.3     1  UNL1       -0.0177
     17 C          -4.6664   -1.4388    1.5831 C.3     1  UNL1       -0.0177
     18 C           2.6404   -3.9900    1.3396 C.3     1  UNL1       -0.0177
     19 C          -2.2180    2.4337    0.8563 C.3     1  UNL1        0.1808
     20 C           3.0793    0.6838    1.0592 C.3     1  UNL1        0.1808
     21 C          -1.0118   -2.8906   -1.5514 C.3     1  UNL1        0.1808
     22 C          -3.0413    3.6930    0.6267 C.3     1  UNL1       -0.0008
     23 C           4.4584    1.3423    1.1100 C.3     1  UNL1       -0.0008
     24 C          -0.6952   -2.7954   -3.0414 C.3     1  UNL1       -0.0008
     25 C          -1.0661    2.3503   -0.1490 C.2     1  UNL1        0.2571
     26 C          -2.0785   -1.8815   -1.1353 C.2     1  UNL1        0.2571
     27 C           3.0889   -0.6561    0.3093 C.2     1  UNL1        0.2571
     28 C          -2.7597    0.1215    1.1807 C.2     1  UNL1        0.3288
     29 C           2.1904    2.1151   -0.6990 C.2     1  UNL1        0.3288
     30 C           1.0794   -3.5079   -0.5671 C.2     1  UNL1        0.3288
     31 C           2.7274    4.4429   -2.4124 C.3     1  UNL1       -0.0605
     32 C          -5.5007   -2.5794    1.0048 C.3     1  UNL1       -0.0605
     33 C           0.6860    5.5794   -1.4934 C.3     1  UNL1       -0.0605
     34 C          -5.5606   -0.2665    1.9799 C.3     1  UNL1       -0.0605
     35 C           3.8255   -3.4729    2.1499 C.3     1  UNL1       -0.0605
     36 C           2.9426   -5.3696    0.7619 C.3     1  UNL1       -0.0605
     37 C           0.2554    4.0330    1.2179 C.3     1  UNL1        0.0041
     38 C          -2.3461   -3.1181    1.0714 C.3     1  UNL1        0.0041
     39 C           1.2006   -1.3872    1.8088 C.3     1  UNL1        0.0041
     40 C          -3.6051    3.7176   -0.7933 C.3     1  UNL1       -0.0588
     41 C          -4.1699    3.7945    1.6519 C.3     1  UNL1       -0.0588
     42 C           4.3858    2.6847    1.8341 C.3     1  UNL1       -0.0588
     43 C          -0.1463   -1.4125   -3.3886 C.3     1  UNL1       -0.0588
     44 C           5.4690    0.4201    1.7881 C.3     1  UNL1       -0.0588
     45 C          -1.9366   -3.1037   -3.8768 C.3     1  UNL1       -0.0588
     46 H           0.6365    2.8129   -1.9186 H       1  UNL1        0.0619
     47 H          -4.1056   -0.5951   -0.3120 H       1  UNL1        0.0619
     48 H           3.1013   -3.0114   -0.5145 H       1  UNL1        0.0619
     49 H           2.3417    4.8378   -0.3709 H       1  UNL1        0.0319
     50 H          -4.2059   -1.7952    2.5117 H       1  UNL1        0.0319
     51 H           1.7938   -4.1027    2.0292 H       1  UNL1        0.0319
     52 H          -1.8500    2.3856    1.8849 H       1  UNL1        0.0835
     53 H           2.7948    0.4958    2.0999 H       1  UNL1        0.0835
     54 H          -1.3533   -3.9009   -1.2962 H       1  UNL1        0.0835
     55 H          -2.4149    4.5821    0.7456 H       1  UNL1        0.0336
     56 H           4.8349    1.5410    0.1005 H       1  UNL1        0.0336
     57 H           0.0833   -3.5302   -3.2809 H       1  UNL1        0.0336
     58 H           2.3119    3.8870   -3.2596 H       1  UNL1        0.0233
     59 H          -4.9424   -3.4841    0.7769 H       1  UNL1        0.0233
     60 H           2.9689    5.4494   -2.7742 H       1  UNL1        0.0233
     61 H           0.0601    5.8162   -0.6369 H       1  UNL1        0.0233
     62 H          -6.0015   -2.2632    0.0822 H       1  UNL1        0.0233
     63 H           3.6865    4.0020   -2.1262 H       1  UNL1        0.0233
     64 H          -6.0180    0.2036    1.1025 H       1  UNL1        0.0233
     65 H          -6.2849   -2.8689    1.7141 H       1  UNL1        0.0233
     66 H           1.1578    6.5246   -1.7872 H       1  UNL1        0.0233
     67 H          -6.3707   -0.6037    2.6362 H       1  UNL1        0.0233
     68 H           0.0265    5.2795   -2.3160 H       1  UNL1        0.0233
     69 H          -5.0056    0.5003    2.5297 H       1  UNL1        0.0233
     70 H           4.6967   -3.2988    1.5083 H       1  UNL1        0.0233
     71 H           4.1196   -4.2072    2.9086 H       1  UNL1        0.0233
     72 H           3.6118   -2.5466    2.6874 H       1  UNL1        0.0233
     73 H           3.5259   -5.3170   -0.1634 H       1  UNL1        0.0233
     74 H           3.5281   -5.9632    1.4746 H       1  UNL1        0.0233
     75 H           2.0351   -5.9543    0.5878 H       1  UNL1        0.0233
     76 H           1.3162    4.2251    1.3889 H       1  UNL1        0.0429
     77 H          -0.2976    4.9665    1.1267 H       1  UNL1        0.0429
     78 H          -0.1129    3.5212    2.1104 H       1  UNL1        0.0429
     79 H          -1.3356   -3.4938    0.9132 H       1  UNL1        0.0429
     80 H          -2.3911   -2.7795    2.1079 H       1  UNL1        0.0429
     81 H          -3.0160   -3.9598    0.8980 H       1  UNL1        0.0429
     82 H           0.7437   -0.4037    1.6778 H       1  UNL1        0.0429
     83 H           0.4089   -2.1379    1.7967 H       1  UNL1        0.0429
     84 H           1.7080   -1.4150    2.7760 H       1  UNL1        0.0429
     85 H          -4.2522    2.8589   -1.0006 H       1  UNL1        0.0234
     86 H          -4.2099    4.6197   -0.9420 H       1  UNL1        0.0234
     87 H          -2.8131    3.7430   -1.5483 H       1  UNL1        0.0234
     88 H          -4.8916    2.9779    1.5470 H       1  UNL1        0.0234
     89 H          -4.7160    4.7363    1.5304 H       1  UNL1        0.0234
     90 H          -3.7729    3.7703    2.6722 H       1  UNL1        0.0234
     91 H           3.9846    2.5700    2.8470 H       1  UNL1        0.0234
     92 H           0.3936   -1.4823   -4.3418 H       1  UNL1        0.0234
     93 H           5.3825    3.1316    1.9194 H       1  UNL1        0.0234
     94 H           5.1469    0.1542    2.8011 H       1  UNL1        0.0234
     95 H          -0.9096   -0.6485   -3.5543 H       1  UNL1        0.0234
     96 H           3.7581    3.4029    1.2991 H       1  UNL1        0.0234
     97 H          -2.7223   -2.3476   -3.8081 H       1  UNL1        0.0234
     98 H           0.5753   -1.0355   -2.6577 H       1  UNL1        0.0234
     99 H           6.4440    0.9135    1.8702 H       1  UNL1        0.0234
    100 H          -1.6609   -3.1758   -4.9352 H       1  UNL1        0.0234
    101 H           5.6283   -0.5071    1.2306 H       1  UNL1        0.0234
    102 H          -2.3682   -4.0682   -3.5879 H       1  UNL1        0.0234
@<TRIPOS>BOND
     1     1    19    1
     2     1    28    1
     3     2    20    1
     4     2    29    1
     5     3    21    1
     6     3    30    1
     7     4    25    2
     8     5    26    2
     9     6    27    2
    10     7    28    2
    11     8    29    2
    12     9    30    2
    13    10    13    1
    14    10    25   am
    15    10    37    1
    16    11    14    1
    17    11    26   am
    18    11    38    1
    19    12    15    1
    20    12    27   am
    21    12    39    1
    22    13    16    1
    23    13    29    1
    24    13    46    1
    25    14    17    1
    26    14    28    1
    27    14    47    1
    28    15    18    1
    29    15    30    1
    30    15    48    1
    31    16    31    1
    32    16    33    1
    33    16    49    1
    34    17    32    1
    35    17    34    1
    36    17    50    1
    37    18    35    1
    38    18    36    1
    39    18    51    1
    40    19    22    1
    41    19    25    1
    42    19    52    1
    43    20    23    1
    44    20    27    1
    45    20    53    1
    46    21    24    1
    47    21    26    1
    48    21    54    1
    49    22    40    1
    50    22    41    1
    51    22    55    1
    52    23    42    1
    53    23    44    1
    54    23    56    1
    55    24    43    1
    56    24    45    1
    57    24    57    1
    58    31    58    1
    59    31    60    1
    60    31    63    1
    61    32    59    1
    62    32    62    1
    63    32    65    1
    64    33    61    1
    65    33    66    1
    66    33    68    1
    67    34    64    1
    68    34    67    1
    69    34    69    1
    70    35    70    1
    71    35    71    1
    72    35    72    1
    73    36    73    1
    74    36    74    1
    75    36    75    1
    76    37    76    1
    77    37    77    1
    78    37    78    1
    79    38    79    1
    80    38    80    1
    81    38    81    1
    82    39    82    1
    83    39    83    1
    84    39    84    1
    85    40    85    1
    86    40    86    1
    87    40    87    1
    88    41    88    1
    89    41    89    1
    90    41    90    1
    91    42    91    1
    92    42    93    1
    93    42    96    1
    94    43    92    1
    95    43    95    1
    96    43    98    1
    97    44    94    1
    98    44    99    1
    99    44   101    1
   100    45    97    1
   101    45   100    1
   102    45   102    1
