@<TRIPOS>MOLECULE
20055267
 91 92 0 0 0
SMALL
GASTEIGER

@<TRIPOS>ATOM
      1 O           0.8120    2.9209   -0.4105 O.2     1  UNK1       -0.2737
      2 O          -6.3077    2.1572   -2.2355 O.3     0  UNK0       -0.3902
      3 O          -1.2243   -0.4348    2.5808 O.2     1  UNK1       -0.2737
      4 O          -2.8063    3.1035   -0.9919 O.2     0  UNK0       -0.2757
      5 O           2.5394    0.2735   -1.6641 O.2     3  UNK3       -0.2688
      6 OG         -4.7436   -3.9495    1.6495 O.3     2  SER2       -0.3927
      7 O          -2.3276   -2.9767   -0.8216 O.2     2  SER2       -0.2737
      8 O           0.3844   -1.3391   -0.2888 O.2     3  UNK3       -0.2733
      9 O           1.3793   -5.2978   -0.9838 O.3     3  UNK3       -0.3927
     10 O           7.3877   -2.5224   -0.5964 O.2     3  UNK3       -0.2527
     11 N           5.0189    2.4714   -0.0359 N.pl3   1  UNK1       -0.2335
     12 N           2.9629    0.5844    0.6155 N.am    3  UNK3       -0.2962
     13 N           0.5129    1.9250    1.6637 N.am    1  UNK1       -0.3114
     14 N           5.8952    4.6336   -0.5511 N.2     1  UNK1       -0.1174
     15 N          -3.1496    1.9283    0.9790 N.am    1  UNK1       -0.3026
     16 N          -2.9255   -0.8219    1.0539 N.am    2  SER2       -0.3005
     17 N           7.2786    2.8447    0.0295 N.pl3   1  UNK1       -0.2518
     18 N          -7.3306    2.7907    0.4103 N.3     0  UNK0       -0.3248
     19 N          -0.9517   -3.2887    1.0324 N.am    3  UNK3       -0.3005
     20 N           2.3780   -2.5386   -0.1151 N.am    3  UNK3       -0.2788
     21 N          -7.9697   -1.8776   -2.0226 N.3     0  UNK0       -0.3299
     22 N           5.1341   -3.0483   -0.3061 N.am    3  UNK3       -0.2743
     23 N           6.7465   -4.6887   -0.1907 N.am    3  UNK3       -0.3131
     24 C           3.6263    2.8286   -0.2206 C.3     1  UNK1        0.0988
     25 C           2.7498    2.0216    0.7269 C.3     1  UNK1        0.1315
     26 C           3.4912    4.3303    0.0327 C.3     1  UNK1        0.0154
     27 C           4.5186    5.0857   -0.8062 C.3     1  UNK1        0.1074
     28 C           1.2649    2.3350    0.5708 C.2     1  UNK1        0.2367
     29 C          -1.8307    1.3497    1.0591 C.3     1  UNK1        0.1149
     30 C          -0.8899    2.2737    1.8291 C.3     1  UNK1        0.0386
     31 C           6.0398    3.3857   -0.2116 C.cat   1  UNK1        0.3625
     32 C          -6.0193    2.1715    0.1863 C.3     0  UNK0        0.0394
     33 C          -6.0696    1.3178   -1.1058 C.3     0  UNK0        0.0719
     34 C          -4.9530    3.2824    0.1174 C.3     0  UNK0        0.0415
     35 C          -7.1603    0.2308   -1.0633 C.3     0  UNK0       -0.0130
     36 C          -1.9763   -0.0323    1.6948 C.2     1  UNK1        0.2355
     37 C          -3.5309    2.7702   -0.0577 C.2     0  UNK0        0.2152
     38 C           2.8894   -0.1385   -0.5636 C.2     3  UNK3        0.2601
     39 CA         -3.1056   -2.2401    1.3386 C.3     2  SER2        0.1226
     40 C          -6.9249   -0.8630   -2.1094 C.3     0  UNK0       -0.0045
     41 C           3.3000   -1.5525   -0.3756 C.2     3  UNK3        0.1100
     42 C           0.2943   -3.6661    0.3760 C.3     3  UNK3        0.1229
     43 C          -2.1237   -2.9132    0.3888 C.2     2  SER2        0.2363
     44 CB         -4.5348   -2.6771    1.0613 C.3     2  SER2        0.0711
     45 C           0.9991   -2.3733   -0.0371 C.2     3  UNK3        0.2399
     46 C           0.1452   -4.6315   -0.7905 C.3     3  UNK3        0.0711
     47 C           4.6130   -1.8037   -0.4567 C.2     3  UNK3        0.0240
     48 C           6.4944   -3.3412   -0.3840 C.2     3  UNK3        0.3009
     49 H           3.3604    2.6306   -1.2657 H       1  UNK1        0.0694
     50 H           3.0286    2.2702    1.7607 H       1  UNK1        0.0628
     51 H           2.4925    4.7014   -0.2154 H       1  UNK1        0.0329
     52 H           3.6650    4.5532    1.0939 H       1  UNK1        0.0329
     53 H           5.2416    1.4999    0.1592 H       1  UNK1        0.2447
     54 H           4.4579    6.1530   -0.5675 H       1  UNK1        0.0694
     55 H           4.2996    4.9808   -1.8752 H       1  UNK1        0.0694
     56 H           3.2436    0.1008    1.4643 H       3  UNK3        0.1499
     57 H          -1.4549    1.1989    0.0391 H       1  UNK1        0.0610
     58 H          -1.0113    3.3105    1.4928 H       1  UNK1        0.0485
     59 H          -1.1035    2.2516    2.9038 H       1  UNK1        0.0485
     60 H           0.9639    1.4049    2.4106 H       1  UNK1        0.1488
     61 H          -5.8132    1.5086    1.0344 H       0  UNK0        0.0488
     62 H          -5.0907    0.8441   -1.2467 H       0  UNK0        0.0609
     63 H          -5.1638    3.9747   -0.7073 H       0  UNK0        0.0374
     64 H          -4.9700    3.8778    1.0399 H       0  UNK0        0.0374
     65 H          -3.7925    1.7579    1.7466 H       1  UNK1        0.1495
     66 H          -8.1463    0.6798   -1.2388 H       0  UNK0        0.0303
     67 H          -7.1722   -0.2355   -0.0698 H       0  UNK0        0.0303
     68 HA         -2.8372   -2.4395    2.3821 H       2  SER2        0.0618
     69 H          -3.4479   -0.4216    0.2794 H       2  SER2        0.1496
     70 H           7.3896    1.8730    0.2975 H       1  UNK1        0.2412
     71 H           8.1203    3.4038   -0.0563 H       1  UNK1        0.2412
     72 H          -5.9520   -1.3380   -1.9447 H       0  UNK0        0.0423
     73 H          -6.9234   -0.4393   -3.1188 H       0  UNK0        0.0423
     74 H          -8.0283    2.0714    0.5945 H       0  UNK0        0.1186
     75 H          -7.2964    3.3682    1.2497 H       0  UNK0        0.1186
     76 H           0.8985   -4.1359    1.1635 H       3  UNK3        0.0618
     77 HB1        -4.7696   -2.7362   -0.0065 H       2  SER2        0.0580
     78 HB2        -5.2472   -1.9823    1.5187 H       2  SER2        0.0580
     79 H          -6.1800    1.6227   -3.0368 H       0  UNK0        0.2098
     80 H          -0.9035   -3.1813    2.0413 H       3  UNK3        0.1496
     81 H           2.7359   -3.4745    0.0465 H       3  UNK3        0.1550
     82 H          -0.6171   -5.3883   -0.5781 H       3  UNK3        0.0580
     83 H          -0.1176   -4.1140   -1.7189 H       3  UNK3        0.0580
     84 H           5.3257   -1.0090   -0.6547 H       3  UNK3        0.0803
     85 H          -7.8273   -2.5724   -2.7545 H       0  UNK0        0.1182
     86 H          -8.8776   -1.4520   -2.2056 H       0  UNK0        0.1182
     87 H          -4.1460   -4.5796    1.2122 H       2  SER2        0.2095
     88 H           4.5089   -3.8261   -0.1266 H       3  UNK3        0.1559
     89 H           1.2612   -5.9107   -1.7294 H       3  UNK3        0.2095
     90 H           7.6922   -5.0548   -0.2183 H       3  UNK3        0.1465
     91 H           5.9990   -5.3518   -0.0164 H       3  UNK3        0.1465
@<TRIPOS>BOND
     1     1    28    2
     2     2    33    1
     3     2    79    1
     4     3    36    2
     5     4    37    2
     6     5    38    2
     7     6    44    1
     8     6    87    1
     9     7    43    2
    10     8    45    2
    11     9    46    1
    12     9    89    1
    13    10    48    2
    14    11    24    1
    15    11    31    1
    16    11    53    1
    17    12    25    1
    18    12    38   am
    19    12    56    1
    20    13    28   am
    21    13    30    1
    22    13    60    1
    23    14    27    1
    24    14    31    2
    25    15    29    1
    26    15    37   am
    27    15    65    1
    28    16    36   am
    29    16    39    1
    30    16    69    1
    31    17    31    1
    32    17    70    1
    33    17    71    1
    34    18    32    1
    35    18    74    1
    36    18    75    1
    37    19    42    1
    38    19    43   am
    39    19    80    1
    40    20    41    1
    41    20    45   am
    42    20    81    1
    43    21    40    1
    44    21    85    1
    45    21    86    1
    46    22    47    1
    47    22    48   am
    48    22    88    1
    49    23    48   am
    50    23    90    1
    51    23    91    1
    52    24    25    1
    53    24    26    1
    54    24    49    1
    55    25    28    1
    56    25    50    1
    57    26    27    1
    58    26    51    1
    59    26    52    1
    60    27    54    1
    61    27    55    1
    62    29    30    1
    63    29    36    1
    64    29    57    1
    65    30    58    1
    66    30    59    1
    67    32    33    1
    68    32    34    1
    69    32    61    1
    70    33    35    1
    71    33    62    1
    72    34    37    1
    73    34    63    1
    74    34    64    1
    75    35    40    1
    76    35    66    1
    77    35    67    1
    78    38    41    1
    79    39    43    1
    80    39    44    1
    81    39    68    1
    82    40    72    1
    83    40    73    1
    84    41    47    2
    85    42    45    1
    86    42    46    1
    87    42    76    1
    88    44    77    1
    89    44    78    1
    90    46    82    1
    91    46    83    1
    92    47    84    1
