@<TRIPOS>MOLECULE
71457955
 75 78 0 0 0
SMALL
GASTEIGER

@<TRIPOS>ATOM
      1 S           0.0681   -1.0361    0.2251 S.3     1  UNL1       -0.1309
      2 S          -6.6828   -4.4600    0.5885 S.2     1  UNL1        0.0491
      3 O          -2.3430    2.6778    1.6415 O.2     1  UNL1       -0.2731
      4 O           0.5006    4.0785    1.4831 O.3     1  UNL1       -0.4762
      5 OXT         0.3661    4.0286   -0.7993 O.2     1  UNL1       -0.2437
      6 O          -4.7662    0.5906    1.8374 O.2     1  UNL1       -0.2683
      7 O          -4.5968    0.6511   -1.2560 O.2     1  UNL1       -0.3811
      8 O           6.8539   -1.4509   -1.8300 O.2     1  UNL1       -0.2525
      9 O          -6.9953    1.9432   -1.9595 O.co2   1  UNL1       -0.5457
     10 O          -6.9112    0.3733   -3.6115 O.co2   1  UNL1       -0.5457
     11 N          -0.4205    1.4073    1.1414 N.am    1  UNL1       -0.2488
     12 N          -2.8246   -0.5001    1.0957 N.am    1  UNL1       -0.2963
     13 N           4.0804    1.5326   -0.1581 N.ar    1  UNL1       -0.1056
     14 N           4.6482    2.0326    1.0800 N.ar    1  UNL1       -0.1379
     15 N           7.2185   -0.2776    0.1807 N.am    1  UNL1       -0.2618
     16 N           6.5720    1.7396    2.4519 N.pl3   1  UNL1       -0.3388
     17 N          -5.1920   -0.6005   -1.0454 N.2     1  UNL1       -0.0751
     18 N          -5.2977   -2.7882    1.8952 N.ar    1  UNL1       -0.2024
     19 N          -6.2416   -3.0812   -0.2511 N.ar    1  UNL1       -0.1854
     20 N           8.7698   -1.8351   -0.5948 N.am    1  UNL1       -0.2979
     21 N          -5.8957   -4.7299    3.1376 N.pl3   1  UNL1       -0.3363
     22 N           9.4846   -5.2138   -1.9883 N.3     1  UNL1       -0.3285
     23 C          -0.3493    0.0379    1.6175 C.3     1  UNL1        0.1042
     24 CA         -1.8508    0.1773    1.9509 C.3     1  UNL1        0.1286
     25 C          -1.6595    1.6815    1.6045 C.2     1  UNL1        0.2440
     26 CA          0.5782    2.0213    0.4560 C.2     1  UNL1        0.1281
     27 C           1.5976    1.3167   -0.0904 C.2     1  UNL1        0.0352
     28 C           1.6664   -0.2087   -0.0773 C.3     1  UNL1        0.0249
     29 C           2.7836    1.9310   -0.7945 C.3     1  UNL1        0.1985
     30 C           0.4685    3.4767    0.2778 C.2     1  UNL1        0.3516
     31 C          -4.1790   -0.2165    1.1348 C.2     1  UNL1        0.2700
     32 C           4.9979    0.6113   -0.6168 C.ar    1  UNL1        0.2212
     33 C           5.8622    1.4274    1.3463 C.ar    1  UNL1        0.1792
     34 C           6.1102    0.5293    0.2988 C.ar    1  UNL1        0.1445
     35 C          -4.9813   -1.0370    0.1598 C.2     1  UNL1        0.2085
     36 C           3.9920    3.0322    1.8940 C.3     1  UNL1        0.0695
     37 C          -5.5303   -2.3463    0.6038 C.ar    1  UNL1        0.1969
     38 C           7.5442   -1.2087   -0.8428 C.2     1  UNL1        0.3041
     39 C          -4.8736    1.0522   -2.5889 C.3     1  UNL1        0.1718
     40 C          -5.8854   -3.9575    2.0228 C.ar    1  UNL1        0.1758
     41 C           9.3410   -2.8271   -1.4765 C.3     1  UNL1        0.0254
     42 C          -4.3070    2.4557   -2.7817 C.3     1  UNL1       -0.0172
     43 C          -4.2003    0.0668   -3.5373 C.3     1  UNL1       -0.0172
     44 C          -6.4102    1.1317   -2.7310 C.2     1  UNL1        0.0871
     45 C           8.8901   -4.2290   -1.0939 C.3     1  UNL1        0.0087
     46 H           0.2932   -0.0743    2.4989 H       1  UNL1        0.0644
     47 HA         -2.0713    0.0104    3.0120 H       1  UNL1        0.0622
     48 H           2.0180   -0.5743   -1.0478 H       1  UNL1        0.0425
     49 H           2.3780   -0.5391    0.6868 H       1  UNL1        0.0425
     50 H          -2.5087   -1.2111    0.4401 H       1  UNL1        0.1499
     51 H           2.7685    3.0239   -0.8142 H       1  UNL1        0.1106
     52 H           2.8079    1.6003   -1.8399 H       1  UNL1        0.1106
     53 H           4.8342    0.0701   -1.5369 H       1  UNL1        0.1421
     54 H           3.4312    3.7037    1.2431 H       1  UNL1        0.0512
     55 H           3.3215    2.5163    2.5842 H       1  UNL1        0.0512
     56 H           4.7305    3.6244    2.4365 H       1  UNL1        0.0512
     57 H           0.4314    5.0543    1.4106 H       1  UNL1        0.2954
     58 H           7.8941   -0.1884    0.9354 H       1  UNL1        0.1567
     59 H           7.4661    1.3002    2.6484 H       1  UNL1        0.1439
     60 H           6.2564    2.3996    3.1544 H       1  UNL1        0.1439
     61 H           9.2788   -1.5914    0.2492 H       1  UNL1        0.1503
     62 H           9.0531   -2.5935   -2.5080 H       1  UNL1        0.0475
     63 H          10.4300   -2.7351   -1.3990 H       1  UNL1        0.0475
     64 H          -4.5513    2.8573   -3.7708 H       1  UNL1        0.0273
     65 H          -4.6850    3.1529   -2.0250 H       1  UNL1        0.0273
     66 H          -3.2164    2.4518   -2.6690 H       1  UNL1        0.0273
     67 H          -4.6349   -0.9377   -3.4810 H       1  UNL1        0.0273
     68 H          -4.2846    0.3978   -4.5784 H       1  UNL1        0.0273
     69 H          -3.1362   -0.0410   -3.2968 H       1  UNL1        0.0273
     70 H           7.7978   -4.3053   -1.1408 H       1  UNL1        0.0437
     71 H           9.1856   -4.4519   -0.0625 H       1  UNL1        0.0437
     72 H          -5.4276   -4.4434    3.9911 H       1  UNL1        0.1442
     73 H          -6.3718   -5.6256    3.1637 H       1  UNL1        0.1442
     74 H           9.1866   -5.0326   -2.9461 H       1  UNL1        0.1183
     75 H           9.1346   -6.1411   -1.7510 H       1  UNL1        0.1183
@<TRIPOS>BOND
     1     1    23    1
     2     1    28    1
     3     2    19   ar
     4     2    40   ar
     5     3    25    2
     6     4    30    1
     7     4    57    1
     8     5    30    2
     9     6    31    2
    10     7    17    1
    11     7    39    1
    12     8    38    2
    13     9    44   ar
    14    10    44   ar
    15    11    23    1
    16    11    25   am
    17    11    26    1
    18    12    24    1
    19    12    31   am
    20    12    50    1
    21    13    14   ar
    22    13    29    1
    23    13    32   ar
    24    14    33   ar
    25    14    36    1
    26    15    34    1
    27    15    38   am
    28    15    58    1
    29    16    33    1
    30    16    59    1
    31    16    60    1
    32    17    35    2
    33    18    37   ar
    34    18    40   ar
    35    19    37   ar
    36    20    38   am
    37    20    41    1
    38    20    61    1
    39    21    40    1
    40    21    72    1
    41    21    73    1
    42    22    45    1
    43    22    74    1
    44    22    75    1
    45    23    24    1
    46    23    46    1
    47    24    25    1
    48    24    47    1
    49    26    27    2
    50    26    30    1
    51    27    28    1
    52    27    29    1
    53    28    48    1
    54    28    49    1
    55    29    51    1
    56    29    52    1
    57    31    35    1
    58    32    34   ar
    59    32    53    1
    60    33    34   ar
    61    35    37    1
    62    36    54    1
    63    36    55    1
    64    36    56    1
    65    39    42    1
    66    39    43    1
    67    39    44    1
    68    41    45    1
    69    41    62    1
    70    41    63    1
    71    42    64    1
    72    42    65    1
    73    42    66    1
    74    43    67    1
    75    43    68    1
    76    43    69    1
    77    45    70    1
    78    45    71    1
