@<TRIPOS>MOLECULE
71141
 54 56 0 0 0
SMALL
GASTEIGER

@<TRIPOS>ATOM
      1 S1          0.7936    1.3236   -2.3169 S.3     1  <1>        -0.1285
      2 S2         -3.3235   -0.2763   -0.4282 S.3     1  <1>        -0.0801
      3 S3          4.2986   -2.4627    0.2276 S.3     1  <1>        -0.1494
      4 O1          3.6084    3.2856   -0.2449 O.3     1  <1>        -0.3492
      5 O2          2.1415    1.7543    2.1122 O.2     1  <1>        -0.2701
      6 O3         -0.8515    2.7304    2.5040 O.3     1  <1>        -0.4763
      7 O4          4.5995    0.5319    1.0206 O.2     1  <1>        -0.2748
      8 O5         -1.5617    0.5737    2.2316 O.2     1  <1>        -0.2437
      9 O6          2.5968   -5.8046    0.4020 O.3     1  <1>        -0.4795
     10 O7          1.8176   -4.6863   -1.4115 O.2     1  <1>        -0.2492
     11 N1          0.7253    2.0163    0.2453 N.am    1  <1>        -0.2439
     12 N2          3.2929    0.9485   -0.8513 N.am    1  <1>        -0.2773
     13 N3         -5.8814   -1.3073   -0.2049 N.ar    1  <1>        -0.2233
     14 N4         -5.8482    0.8599   -0.2768 N.ar    1  <1>        -0.1015
     15 N5          0.3511   -3.3476    0.7618 N.3     1  <1>        -0.3178
     16 N6         -7.1652   -0.9321   -0.1204 N.ar    1  <1>        -0.0435
     17 N7         -7.1387    0.3943   -0.1644 N.ar    1  <1>        -0.0222
     18 C1          2.6790    2.1897   -0.3604 C.3     1  <1>         0.2424
     19 C2          1.3042    2.4618   -1.0091 C.3     1  <1>         0.1322
     20 C3          1.8752    1.9678    0.9525 C.2     1  <1>         0.2746
     21 C4         -0.6001    1.7809    0.4236 C.2     1  <1>         0.1229
     22 C5         -1.4448    1.6609   -0.6283 C.2     1  <1>        -0.0211
     23 C6         -0.9818    1.6757   -2.0835 C.3     1  <1>         0.0197
     24 C7         -2.9393    1.4806   -0.5119 C.3     1  <1>         0.0253
     25 C8          4.2117    0.2211   -0.1045 C.2     1  <1>         0.2253
     26 C9         -1.0650    1.5974    1.8064 C.2     1  <1>         0.3514
     27 C10         4.0510    3.8423   -1.4735 C.3     1  <1>         0.0396
     28 C11         4.6948   -1.0286   -0.8005 C.3     1  <1>         0.0703
     29 C12        -5.0866   -0.2096   -0.2997 C.ar    1  <1>         0.2094
     30 C13         2.5012   -2.2696    0.2785 C.3     1  <1>         0.0197
     31 C14         1.8003   -3.5537    0.7255 C.3     1  <1>         0.1123
     32 C15         2.0734   -4.7141   -0.2132 C.2     1  <1>         0.3225
     33 C16        -5.5282   -2.7043   -0.1878 C.3     1  <1>         0.0346
     34 H1          1.0954    3.5186   -1.2134 H       1  <1>         0.0672
     35 H2          3.0508    0.6056   -1.7777 H       1  <1>         0.1520
     36 H3         -1.2097    2.6519   -2.5257 H       1  <1>         0.0423
     37 H4         -1.5184    0.9165   -2.6616 H       1  <1>         0.0423
     38 H5         -3.4473    1.9444   -1.3653 H       1  <1>         0.0427
     39 H6         -3.3188    1.9818    0.3857 H       1  <1>         0.0427
     40 H7          4.7917    4.6157   -1.2534 H       1  <1>         0.0524
     41 H8          3.2174    4.3030   -2.0100 H       1  <1>         0.0524
     42 H9          4.5219    3.0774   -2.0975 H       1  <1>         0.0524
     43 H10         4.2542   -1.1510   -1.7939 H       1  <1>         0.0471
     44 H11         5.7799   -0.9562   -0.9220 H       1  <1>         0.0471
     45 H12        -1.1481    2.6518    3.4357 H       1  <1>         0.2954
     46 H13         2.2542   -1.4546    0.9678 H       1  <1>         0.0397
     47 H14         2.1499   -1.9874   -0.7213 H       1  <1>         0.0397
     48 H15         2.1342   -3.8240    1.7349 H       1  <1>         0.0582
     49 H16         0.1312   -2.5727    1.3865 H       1  <1>         0.1190
     50 H17        -0.1011   -4.1698    1.1602 H       1  <1>         0.1190
     51 H18        -6.4346   -3.3091   -0.0993 H       1  <1>         0.0474
     52 H19        -4.8780   -2.8881    0.6710 H       1  <1>         0.0474
     53 H20        -5.0152   -2.9447   -1.1221 H       1  <1>         0.0474
     54 H21         2.7475   -6.5423   -0.2268 H       1  <1>         0.2951
@<TRIPOS>BOND
     1     1    19    1
     2     1    23    1
     3     2    24    1
     4     2    29    1
     5     3    28    1
     6     3    30    1
     7     4    18    1
     8     4    27    1
     9     5    20    2
    10     6    26    1
    11     6    45    1
    12     7    25    2
    13     8    26    2
    14     9    32    1
    15     9    54    1
    16    10    32    2
    17    11    19    1
    18    11    20   am
    19    11    21    1
    20    12    18    1
    21    12    25   am
    22    12    35    1
    23    13    16   ar
    24    13    29   ar
    25    13    33    1
    26    14    17   ar
    27    14    29   ar
    28    15    31    1
    29    15    49    1
    30    15    50    1
    31    16    17   ar
    32    18    19    1
    33    18    20    1
    34    19    34    1
    35    21    22    2
    36    21    26    1
    37    22    23    1
    38    22    24    1
    39    23    36    1
    40    23    37    1
    41    24    38    1
    42    24    39    1
    43    25    28    1
    44    27    40    1
    45    27    41    1
    46    27    42    1
    47    28    43    1
    48    28    44    1
    49    30    31    1
    50    30    46    1
    51    30    47    1
    52    31    32    1
    53    31    48    1
    54    33    51    1
    55    33    52    1
    56    33    53    1
