@<TRIPOS>MOLECULE
5773
 45 48 0 0 0
SMALL
GASTEIGER

@<TRIPOS>ATOM
      1 S           0.6501   -0.9429   -0.2528 S.3     1  UNL1       -0.1309
      2 S           4.8478   -1.1598    1.9333 S.2     1  UNL1       -0.1011
      3 O           0.5819    3.7029   -0.0517 O.2     1  UNL1       -0.2731
      4 O          -1.7714    2.6984    2.2693 O.co2   1  UNL1       -0.5433
      5 OXT        -3.0730    2.9383    0.4033 O.co2   1  UNL1       -0.5433
      6 O           4.0054    0.6847   -2.3360 O.2     1  UNL1       -0.2754
      7 N          -0.3061    1.5310   -0.2618 N.am    1  UNL1       -0.2532
      8 N           2.7424    1.2932   -0.4867 N.am    1  UNL1       -0.3015
      9 N          -4.0611   -1.0867    0.4295 N.ar    1  UNL1       -0.1998
     10 C           0.3443    0.5925   -1.1555 C.3     1  UNL1        0.1041
     11 CA          1.5108    1.6049   -1.2105 C.3     1  UNL1        0.1283
     12 C           0.5551    2.5559   -0.4318 C.2     1  UNL1        0.2438
     13 CA         -1.4324    1.2602    0.4456 C.2     1  UNL1        0.0658
     14 C          -1.8767   -0.0092    0.5924 C.2     1  UNL1        0.0277
     15 C          -1.1224   -1.2322    0.0765 C.3     1  UNL1        0.0246
     16 C          -3.1296   -0.4027    1.3396 C.3     1  UNL1        0.1747
     17 C          -2.1686    2.4192    1.1082 C.2     1  UNL1        0.0861
     18 C           3.9016    0.8532   -1.1221 C.2     1  UNL1        0.2185
     19 C           5.0588    0.6084   -0.1746 C.3     1  UNL1        0.0553
     20 C          -3.9753   -2.4135    0.3120 C.ar    1  UNL1        0.1715
     21 C          -4.9517   -0.3503   -0.2387 C.ar    1  UNL1        0.1715
     22 C           5.0300   -0.8256    0.2758 C.ar    1  UNL1       -0.0015
     23 C          -4.8415   -3.0854   -0.5387 C.ar    1  UNL1        0.0021
     24 C          -5.8428   -0.9687   -1.1042 C.ar    1  UNL1        0.0021
     25 C          -5.7836   -2.3510   -1.2524 C.ar    1  UNL1       -0.0506
     26 C           5.1352   -1.9436   -0.4964 C.ar    1  UNL1       -0.0511
     27 C           5.0645   -3.1265    0.2947 C.ar    1  UNL1       -0.0545
     28 C           4.9084   -2.8447    1.6340 C.ar    1  UNL1       -0.0241
     29 H          -0.1850    0.4725   -2.1082 H       1  UNL1        0.0644
     30 HA          1.7127    1.9778   -2.2225 H       1  UNL1        0.0622
     31 H          -1.5817   -1.5963   -0.8478 H       1  UNL1        0.0425
     32 H          -1.1421   -2.0331    0.8214 H       1  UNL1        0.0425
     33 H           2.7654    1.3855    0.5263 H       1  UNL1        0.1495
     34 H          -3.6627    0.4447    1.7833 H       1  UNL1        0.1083
     35 H          -2.8927   -1.0780    2.1710 H       1  UNL1        0.1083
     36 H           5.9933    0.8125   -0.7104 H       1  UNL1        0.0412
     37 H           5.0106    1.3142    0.6625 H       1  UNL1        0.0412
     38 H          -3.2415   -2.9389    0.9103 H       1  UNL1        0.1376
     39 H          -4.9471    0.7211   -0.0813 H       1  UNL1        0.1376
     40 H          -4.7893   -4.1640   -0.6407 H       1  UNL1        0.0677
     41 H          -6.5726   -0.3850   -1.6550 H       1  UNL1        0.0677
     42 H           5.2591   -1.9353   -1.5716 H       1  UNL1        0.0626
     43 H          -6.4725   -2.8561   -1.9230 H       1  UNL1        0.0621
     44 H           5.1253   -4.1329   -0.0985 H       1  UNL1        0.0623
     45 H           4.8270   -3.5477    2.4510 H       1  UNL1        0.0693
@<TRIPOS>BOND
     1     1    10    1
     2     1    15    1
     3     2    22   ar
     4     2    28   ar
     5     3    12    2
     6     4    17   ar
     7     5    17   ar
     8     6    18    2
     9     7    10    1
    10     7    12   am
    11     7    13    1
    12     8    11    1
    13     8    18   am
    14     8    33    1
    15     9    16    1
    16     9    20   ar
    17     9    21   ar
    18    10    11    1
    19    10    29    1
    20    11    12    1
    21    11    30    1
    22    13    14    2
    23    13    17    1
    24    14    15    1
    25    14    16    1
    26    15    31    1
    27    15    32    1
    28    16    34    1
    29    16    35    1
    30    18    19    1
    31    19    22    1
    32    19    36    1
    33    19    37    1
    34    20    23   ar
    35    20    38    1
    36    21    24   ar
    37    21    39    1
    38    22    26   ar
    39    23    25   ar
    40    23    40    1
    41    24    25   ar
    42    24    41    1
    43    25    43    1
    44    26    27   ar
    45    26    42    1
    46    27    28   ar
    47    27    44    1
    48    28    45    1
