@<TRIPOS>MOLECULE
11476460
 47 50 0 0 0
SMALL
GASTEIGER

@<TRIPOS>ATOM
      1 P           8.0409   -1.7054    0.2703 P.3     1  UNL1        0.4725
      2 F          -1.1142    1.4715    1.9281 F       1  UNL1       -0.2048
      3 O           5.2147    1.5948    0.2112 O.3     1  UNL1       -0.4428
      4 O           7.2073   -0.3892   -0.1706 O.3     1  UNL1       -0.2830
      5 O           3.5947    2.0635    1.7276 O.2     1  UNL1       -0.2259
      6 O           7.9278   -2.6797   -1.0154 O.3     1  UNL1       -0.3026
      7 O           7.0651   -2.4048    1.3538 O.3     1  UNL1       -0.3026
      8 O           9.4367   -1.4392    0.7531 O.2     1  UNL1       -0.2275
      9 N           3.0994    1.0403   -0.3476 N.am    1  UNL1       -0.2336
     10 N          -4.4051   -1.0908    0.3401 N.ar    1  UNL1       -0.2511
     11 N          -7.1284   -1.5139    0.4238 N.ar    1  UNL1       -0.1291
     12 N          -8.4325   -1.2522    0.2568 N.ar    1  UNL1       -0.1659
     13 N          -7.5527    0.5134   -0.4915 N.ar    1  UNL1       -0.1062
     14 N          -8.7306   -0.0619   -0.2821 N.ar    1  UNL1       -0.0460
     15 C           5.3117    0.8136   -0.9879 C.3     1  UNL1        0.1444
     16 C           3.8932    0.7539   -1.5125 C.3     1  UNL1        0.0623
     17 C           5.8801   -0.5549   -0.6385 C.3     1  UNL1        0.0976
     18 C           1.6876    0.8576   -0.3119 C.ar    1  UNL1        0.0423
     19 C           3.9066    1.5973    0.6409 C.2     1  UNL1        0.4077
     20 C           0.9540    1.2581    0.8090 C.ar    1  UNL1       -0.0043
     21 C           1.0251    0.2773   -1.3979 C.ar    1  UNL1       -0.0394
     22 C          -1.0851    0.5005   -0.2425 C.ar    1  UNL1        0.0189
     23 C          -0.4291    1.0801    0.8436 C.ar    1  UNL1        0.1329
     24 C          -0.3579    0.0991   -1.3631 C.ar    1  UNL1       -0.0495
     25 C          -2.5199    0.3141   -0.2115 C.ar    1  UNL1        0.0030
     26 C          -3.3781    1.3005   -0.6802 C.ar    1  UNL1       -0.0504
     27 C          -3.0756   -0.8524    0.2843 C.ar    1  UNL1        0.0362
     28 C          -4.7523    1.0922   -0.6394 C.ar    1  UNL1       -0.0319
     29 C          -5.2111   -0.1096   -0.1244 C.ar    1  UNL1        0.1114
     30 C          -6.6188   -0.3793   -0.0595 C.ar    1  UNL1        0.2226
     31 C          -9.4538   -2.1943    0.6338 C.3     1  UNL1        0.0516
     32 H           5.9769    1.3324   -1.6867 H       1  UNL1        0.0774
     33 H           3.7155    1.5480   -2.2467 H       1  UNL1        0.0507
     34 H           3.6652   -0.2195   -1.9560 H       1  UNL1        0.0507
     35 H           5.8852   -1.1986   -1.5237 H       1  UNL1        0.0603
     36 H           5.2858   -1.0310    0.1482 H       1  UNL1        0.0603
     37 H           1.3986    1.7120    1.6843 H       1  UNL1        0.0665
     38 H           1.5469   -0.0424   -2.2942 H       1  UNL1        0.0636
     39 H          -0.8542   -0.3526   -2.2190 H       1  UNL1        0.0625
     40 H          -2.9934    2.2354   -1.0800 H       1  UNL1        0.0625
     41 H          -2.4584   -1.6611    0.6651 H       1  UNL1        0.0836
     42 H          -5.4193    1.8652   -1.0069 H       1  UNL1        0.0640
     43 H           8.4203   -3.5279   -1.0128 H       1  UNL1        0.2220
     44 H           7.3880   -3.1892    1.8465 H       1  UNL1        0.2220
     45 H          -9.7786   -2.7214   -0.2662 H       1  UNL1        0.0491
     46 H          -9.0429   -2.9003    1.3599 H       1  UNL1        0.0491
     47 H         -10.2886   -1.6488    1.0807 H       1  UNL1        0.0491
@<TRIPOS>BOND
     1     1     4    1
     2     1     6    1
     3     1     7    1
     4     1     8    2
     5     2    23    1
     6     3    15    1
     7     3    19    1
     8     4    17    1
     9     5    19    2
    10     6    43    1
    11     7    44    1
    12     9    16    1
    13     9    18    1
    14     9    19   am
    15    10    27   ar
    16    10    29   ar
    17    11    12   ar
    18    11    30   ar
    19    12    14   ar
    20    12    31    1
    21    13    14   ar
    22    13    30   ar
    23    15    16    1
    24    15    17    1
    25    15    32    1
    26    16    33    1
    27    16    34    1
    28    17    35    1
    29    17    36    1
    30    18    20   ar
    31    18    21   ar
    32    20    23   ar
    33    20    37    1
    34    21    24   ar
    35    21    38    1
    36    22    23   ar
    37    22    24   ar
    38    22    25    1
    39    24    39    1
    40    25    26   ar
    41    25    27   ar
    42    26    28   ar
    43    26    40    1
    44    27    41    1
    45    28    29   ar
    46    28    42    1
    47    29    30    1
    48    31    45    1
    49    31    46    1
    50    31    47    1
