@<TRIPOS>MOLECULE
11567473
 48 52 0 0 0
SMALL
GASTEIGER

@<TRIPOS>ATOM
      1 F           1.3051   -3.0320   -0.3263 F       1  UNL1       -0.2035
      2 O           5.5234   -0.0678    1.4459 O.3     1  UNL1       -0.3722
      3 O          -3.7117   -2.6469   -0.2258 O.2     1  UNL1       -0.2863
      4 O          -6.0192   -1.6912    0.5540 O.3     1  UNL1       -0.4770
      5 O          -6.4480    0.3711   -0.3367 O.2     1  UNL1       -0.2449
      6 N           2.2654   -0.5005   -0.0311 N.pl3   1  UNL1       -0.3225
      7 N          -2.3398    1.1671    0.2151 N.ar    1  UNL1       -0.3416
      8 N           5.5920    0.1600   -1.4233 N.3     1  UNL1       -0.3074
      9 N           1.0680    2.6913    0.3684 N.1     1  UNL1       -0.1907
     10 C          -2.0099    2.6041    0.3836 C.3     1  UNL1        0.0347
     11 C           4.3797    0.2752   -0.6279 C.3     1  UNL1        0.0513
     12 C           4.5124   -0.6027    0.6085 C.3     1  UNL1        0.0910
     13 C          -1.7275    3.4625   -0.8012 C.3     1  UNL1       -0.0302
     14 C          -2.9864    3.6594   -0.0085 C.3     1  UNL1       -0.0302
     15 C           3.0725   -0.2304   -1.2306 C.3     1  UNL1        0.0303
     16 C           3.0982   -0.5453    1.1791 C.3     1  UNL1        0.0401
     17 C           0.9040   -0.7091   -0.0419 C.ar    1  UNL1        0.0851
     18 C          -1.3865    0.1178    0.0802 C.ar    1  UNL1        0.0726
     19 C           6.7244    0.6120   -0.5974 C.3     1  UNL1        0.0198
     20 C           6.7818   -0.1214    0.7520 C.3     1  UNL1        0.0606
     21 C          -0.0010    0.3473    0.0940 C.ar    1  UNL1        0.0996
     22 C          -1.8335   -1.2124   -0.0749 C.ar    1  UNL1        0.0501
     23 C          -3.6887    0.8700    0.1928 C.ar    1  UNL1        0.0232
     24 C           0.4429   -2.0135   -0.1943 C.ar    1  UNL1        0.1464
     25 C          -0.9257   -2.2699   -0.2112 C.ar    1  UNL1       -0.0117
     26 C          -4.2172   -0.3519    0.0518 C.ar    1  UNL1        0.1220
     27 C          -3.2913   -1.5039   -0.0951 C.ar    1  UNL1        0.2035
     28 C           0.5914    1.6464    0.2462 C.1     1  UNL1        0.1032
     29 C          -5.6749   -0.4852    0.0548 C.2     1  UNL1        0.3420
     30 H          -1.5206    2.8023    1.3323 H       1  UNL1        0.0528
     31 H           4.2463    1.3275   -0.3332 H       1  UNL1        0.0502
     32 H           4.7528   -1.6451    0.3505 H       1  UNL1        0.0628
     33 H          -0.9765    4.2385   -0.7225 H       1  UNL1        0.0286
     34 H          -1.8170    3.0267   -1.7890 H       1  UNL1        0.0286
     35 H          -3.8964    3.4704   -0.5632 H       1  UNL1        0.0286
     36 H          -3.0488    4.5424    0.6188 H       1  UNL1        0.0286
     37 H           2.6148    0.5220   -1.8813 H       1  UNL1        0.0480
     38 H           3.2126   -1.1571   -1.7992 H       1  UNL1        0.0480
     39 H           2.8884   -1.4303    1.7894 H       1  UNL1        0.0490
     40 H           2.9447    0.3458    1.7980 H       1  UNL1        0.0490
     41 H           5.5201    0.7437   -2.2557 H       1  UNL1        0.1224
     42 H           6.6269    1.6904   -0.4203 H       1  UNL1        0.0447
     43 H           7.6599    0.4531   -1.1435 H       1  UNL1        0.0447
     44 H           7.0669   -1.1718    0.6153 H       1  UNL1        0.0572
     45 H           7.5348    0.3436    1.3963 H       1  UNL1        0.0572
     46 H          -4.3583    1.7023    0.3674 H       1  UNL1        0.0819
     47 H          -1.2654   -3.2948   -0.3313 H       1  UNL1        0.0654
     48 H          -6.9917   -1.8186    0.5723 H       1  UNL1        0.2954
@<TRIPOS>BOND
     1     1    24    1
     2     2    12    1
     3     2    20    1
     4     3    27    2
     5     4    29    1
     6     4    48    1
     7     5    29    2
     8     6    15    1
     9     6    16    1
    10     6    17    1
    11     7    10    1
    12     7    18   ar
    13     7    23   ar
    14     8    11    1
    15     8    19    1
    16     8    41    1
    17     9    28    3
    18    10    13    1
    19    10    14    1
    20    10    30    1
    21    11    12    1
    22    11    15    1
    23    11    31    1
    24    12    16    1
    25    12    32    1
    26    13    14    1
    27    13    33    1
    28    13    34    1
    29    14    35    1
    30    14    36    1
    31    15    37    1
    32    15    38    1
    33    16    39    1
    34    16    40    1
    35    17    21   ar
    36    17    24   ar
    37    18    21   ar
    38    18    22   ar
    39    19    20    1
    40    19    42    1
    41    19    43    1
    42    20    44    1
    43    20    45    1
    44    21    28    1
    45    22    25   ar
    46    22    27   ar
    47    23    26   ar
    48    23    46    1
    49    24    25   ar
    50    25    47    1
    51    26    27   ar
    52    26    29    1
