@<TRIPOS>MOLECULE
93184
 61 65 0 0 0
SMALL
GASTEIGER

@<TRIPOS>ATOM
      1 S          -3.2929    0.7397    1.0867 S.3     1  UNL1       -0.1273
      2 O          -4.1407   -2.5535   -1.7147 O.2     1  UNL1       -0.2734
      3 O          -7.7119    0.3928   -0.6033 O.3     1  UNL1       -0.4793
      4 OXT        -7.2829   -1.6622    0.2851 O.2     1  UNL1       -0.2489
      5 O          -0.2312   -1.1454    1.5788 O.2     1  UNL1       -0.2745
      6 O           3.0157   -0.1168   -0.9893 O.3     1  UNL1       -0.4251
      7 O           2.4073   -1.3438    0.9031 O.2     1  UNL1       -0.2492
      8 N          -4.6571   -1.2830    0.2062 N.am    1  UNL1       -0.2708
      9 N          -1.5259   -1.3292   -0.3358 N.am    1  UNL1       -0.3008
     10 C          -3.5834   -1.0646    1.1799 C.3     1  UNL1        0.1005
     11 C          -5.0838    1.0457    0.6762 C.3     1  UNL1        0.0417
     12 CA         -5.4639   -0.1559   -0.2156 C.3     1  UNL1        0.1379
     13 CA         -2.6935   -1.9544    0.3011 C.3     1  UNL1        0.1277
     14 C          -3.9207   -2.0780   -0.6239 C.2     1  UNL1        0.2402
     15 C          -5.8628    1.1310    1.9958 C.3     1  UNL1       -0.0484
     16 C          -5.2004    2.3661   -0.0877 C.3     1  UNL1       -0.0484
     17 C          -6.8948   -0.5831   -0.1371 C.2     1  UNL1        0.3269
     18 C          -0.3755   -0.9723    0.3696 C.2     1  UNL1        0.2320
     19 C           0.6966   -0.3192   -0.5026 C.3     1  UNL1        0.1576
     20 C           0.4581    1.1798   -0.5614 C.ar    1  UNL1       -0.0249
     21 C           2.1173   -0.6623   -0.0722 C.2     1  UNL1        0.3288
     22 C           8.6501    0.3872    0.8793 C.3     1  UNL1       -0.0450
     23 C           7.2988    0.9804    1.3057 C.3     1  UNL1       -0.0270
     24 C           8.3770   -1.0548    0.4254 C.3     1  UNL1       -0.0271
     25 C           6.3574    0.2144    0.4310 C.ar    1  UNL1       -0.0407
     26 C           6.9695   -0.9410   -0.0687 C.ar    1  UNL1       -0.0439
     27 C           5.0354    0.5054    0.1399 C.ar    1  UNL1       -0.0158
     28 C           4.3281   -0.3785   -0.6778 C.ar    1  UNL1        0.1319
     29 C          -0.3478    1.6913   -1.5600 C.ar    1  UNL1       -0.0573
     30 C           1.0533    1.9907    0.3855 C.ar    1  UNL1       -0.0573
     31 C           6.2722   -1.8293   -0.8698 C.ar    1  UNL1       -0.0548
     32 C           4.9419   -1.5375   -1.1790 C.ar    1  UNL1       -0.0190
     33 C          -0.5671    3.0678   -1.6139 C.ar    1  UNL1       -0.0615
     34 C           0.8339    3.3671    0.3315 C.ar    1  UNL1       -0.0615
     35 C           0.0237    3.9056   -0.6682 C.ar    1  UNL1       -0.0617
     36 H          -3.8235   -1.4576    2.1719 H       1  UNL1        0.0640
     37 HA         -5.2283    0.0329   -1.2717 H       1  UNL1        0.0631
     38 HA         -2.4289   -2.9132    0.7631 H       1  UNL1        0.0622
     39 H          -5.4639    1.9190    2.6458 H       1  UNL1        0.0244
     40 H          -6.9165    1.3739    1.8195 H       1  UNL1        0.0244
     41 H          -5.8348    0.1894    2.5556 H       1  UNL1        0.0244
     42 H          -4.6223    2.3502   -1.0191 H       1  UNL1        0.0244
     43 H          -6.2413    2.5792   -0.3533 H       1  UNL1        0.0244
     44 H          -4.8418    3.2104    0.5129 H       1  UNL1        0.0244
     45 H          -1.5465   -1.1411   -1.3353 H       1  UNL1        0.1496
     46 H           0.6043   -0.7453   -1.5126 H       1  UNL1        0.0559
     47 H          -8.6565    0.1318   -0.5594 H       1  UNL1        0.2951
     48 H           9.0420    0.9627    0.0289 H       1  UNL1        0.0272
     49 H           9.3993    0.4398    1.6754 H       1  UNL1        0.0272
     50 H           7.2601    2.0577    1.1218 H       1  UNL1        0.0313
     51 H           7.0893    0.7705    2.3595 H       1  UNL1        0.0313
     52 H           8.4252   -1.7510    1.2690 H       1  UNL1        0.0313
     53 H           9.0734   -1.3648   -0.3586 H       1  UNL1        0.0313
     54 H           4.5614    1.3967    0.5382 H       1  UNL1        0.0657
     55 H          -0.8123    1.0480   -2.3011 H       1  UNL1        0.0621
     56 H           1.6736    1.5933    1.1827 H       1  UNL1        0.0621
     57 H           6.7410   -2.7309   -1.2489 H       1  UNL1        0.0622
     58 H           4.3787   -2.2206   -1.8100 H       1  UNL1        0.0654
     59 H          -1.1988    3.4869   -2.3915 H       1  UNL1        0.0618
     60 H           1.2905    4.0194    1.0702 H       1  UNL1        0.0618
     61 H          -0.1483    4.9771   -0.7093 H       1  UNL1        0.0618
@<TRIPOS>BOND
     1     1    10    1
     2     1    11    1
     3     2    14    2
     4     3    17    1
     5     3    47    1
     6     4    17    2
     7     5    18    2
     8     6    21    1
     9     6    28    1
    10     7    21    2
    11     8    10    1
    12     8    12    1
    13     8    14   am
    14     9    13    1
    15     9    18   am
    16     9    45    1
    17    10    13    1
    18    10    36    1
    19    11    12    1
    20    11    15    1
    21    11    16    1
    22    12    17    1
    23    12    37    1
    24    13    14    1
    25    13    38    1
    26    15    39    1
    27    15    40    1
    28    15    41    1
    29    16    42    1
    30    16    43    1
    31    16    44    1
    32    18    19    1
    33    19    20    1
    34    19    21    1
    35    19    46    1
    36    20    29   ar
    37    20    30   ar
    38    22    23    1
    39    22    24    1
    40    22    48    1
    41    22    49    1
    42    23    25    1
    43    23    50    1
    44    23    51    1
    45    24    26    1
    46    24    52    1
    47    24    53    1
    48    25    26   ar
    49    25    27   ar
    50    26    31   ar
    51    27    28   ar
    52    27    54    1
    53    28    32   ar
    54    29    33   ar
    55    29    55    1
    56    30    34   ar
    57    30    56    1
    58    31    32   ar
    59    31    57    1
    60    32    58    1
    61    33    35   ar
    62    33    59    1
    63    34    35   ar
    64    34    60    1
    65    35    61    1
