@<TRIPOS>MOLECULE
56206
 48 51 0 0 0
SMALL
GASTEIGER

@<TRIPOS>ATOM
      1 F          -2.3580   -3.3723    0.1414 F       1  UNL1       -0.2035
      2 F           0.9917    5.9649    0.1871 F       1  UNL1       -0.2055
      3 O           2.6589   -3.5438    0.1428 O.2     1  UNL1       -0.2863
      4 O           5.0392   -2.8226   -0.7219 O.3     1  UNL1       -0.4770
      5 O           5.7347   -0.8927    0.2889 O.2     1  UNL1       -0.2449
      6 N          -3.0389   -0.6906   -0.0461 N.pl3   1  UNL1       -0.3252
      7 N          -5.7182    0.2931    0.0677 N.3     1  UNL1       -0.3024
      8 N           1.7401    0.4505   -0.0485 N.ar    1  UNL1       -0.3148
      9 C          -3.9017   -1.0345    1.0911 C.3     1  UNL1        0.0251
     10 C          -3.4054    0.5275   -0.7748 C.3     1  UNL1        0.0251
     11 C          -5.3747   -0.9974    0.6779 C.3     1  UNL1        0.0144
     12 C          -4.8950    0.5152   -1.1272 C.3     1  UNL1        0.0144
     13 C          -1.7006   -1.0974   -0.0027 C.ar    1  UNL1        0.0674
     14 C          -0.6830   -0.1400   -0.0537 C.ar    1  UNL1       -0.0133
     15 C           0.6733   -0.5116    0.0021 C.ar    1  UNL1        0.0593
     16 C          -7.1397    0.3371   -0.2730 C.3     1  UNL1       -0.0126
     17 C          -1.3876   -2.4488    0.0912 C.ar    1  UNL1        0.1451
     18 C           0.9656   -1.8917    0.0679 C.ar    1  UNL1        0.0492
     19 C          -0.0556   -2.8505    0.1209 C.ar    1  UNL1       -0.0118
     20 C           2.3748   -2.3556    0.0571 C.ar    1  UNL1        0.2035
     21 C           3.0440   -0.0366   -0.1127 C.ar    1  UNL1        0.0281
     22 C           3.4239   -1.3189   -0.0712 C.ar    1  UNL1        0.1224
     23 C           1.5480    1.8696    0.0122 C.ar    1  UNL1        0.0468
     24 C           1.5457    2.5283    1.2457 C.ar    1  UNL1       -0.0351
     25 C           1.3607    2.6061   -1.1619 C.ar    1  UNL1       -0.0351
     26 C           4.8548   -1.6225   -0.1323 C.2     1  UNL1        0.3420
     27 C           1.3580    3.9092    1.3048 C.ar    1  UNL1       -0.0245
     28 C           1.1732    3.9871   -1.1030 C.ar    1  UNL1       -0.0245
     29 C           1.1719    4.6388    0.1304 C.ar    1  UNL1        0.1235
     30 H          -3.6845   -2.0304    1.4917 H       1  UNL1        0.0476
     31 H          -3.7225   -0.3189    1.9043 H       1  UNL1        0.0476
     32 H          -3.1824    1.4113   -0.1632 H       1  UNL1        0.0476
     33 H          -2.8363    0.6076   -1.7096 H       1  UNL1        0.0476
     34 H          -5.5819   -1.8230   -0.0164 H       1  UNL1        0.0442
     35 H          -5.9859   -1.1624    1.5735 H       1  UNL1        0.0442
     36 H          -5.1474    1.4803   -1.5831 H       1  UNL1        0.0442
     37 H          -5.0872   -0.2615   -1.8800 H       1  UNL1        0.0442
     38 H          -0.9359    0.9152   -0.1097 H       1  UNL1        0.0658
     39 H          -7.4181   -0.4380   -0.9962 H       1  UNL1        0.0391
     40 H          -7.4033    1.3133   -0.6952 H       1  UNL1        0.0391
     41 H          -7.7541    0.2077    0.6249 H       1  UNL1        0.0391
     42 H           0.1682   -3.9122    0.1774 H       1  UNL1        0.0654
     43 H           3.7822    0.7578   -0.1935 H       1  UNL1        0.0822
     44 H           1.6887    1.9711    2.1683 H       1  UNL1        0.0639
     45 H           1.3590    2.1097   -2.1292 H       1  UNL1        0.0639
     46 H           1.3565    4.4168    2.2649 H       1  UNL1        0.0647
     47 H           1.0279    4.5552   -2.0170 H       1  UNL1        0.0647
     48 H           5.9887   -3.0620   -0.7816 H       1  UNL1        0.2954
@<TRIPOS>BOND
     1     1    17    1
     2     2    29    1
     3     3    20    2
     4     4    26    1
     5     4    48    1
     6     5    26    2
     7     6     9    1
     8     6    10    1
     9     6    13    1
    10     7    11    1
    11     7    12    1
    12     7    16    1
    13     8    15   ar
    14     8    21   ar
    15     8    23    1
    16     9    11    1
    17     9    30    1
    18     9    31    1
    19    10    12    1
    20    10    32    1
    21    10    33    1
    22    11    34    1
    23    11    35    1
    24    12    36    1
    25    12    37    1
    26    13    14   ar
    27    13    17   ar
    28    14    15   ar
    29    14    38    1
    30    15    18   ar
    31    16    39    1
    32    16    40    1
    33    16    41    1
    34    17    19   ar
    35    18    19   ar
    36    18    20   ar
    37    19    42    1
    38    20    22   ar
    39    21    22   ar
    40    21    43    1
    41    22    26    1
    42    23    24   ar
    43    23    25   ar
    44    24    27   ar
    45    24    44    1
    46    25    28   ar
    47    25    45    1
    48    27    29   ar
    49    27    46    1
    50    28    29   ar
    51    28    47    1
