@<TRIPOS>MOLECULE
60651
 45 48 0 0 0
SMALL
GASTEIGER

@<TRIPOS>ATOM
      1 F          -1.7192    2.8857    0.3328 F       1  UNL1       -0.2034
      2 O          -0.9654   -1.7563   -0.3095 O.3     1  UNL1       -0.4710
      3 O           3.3270    2.4023    0.2433 O.2     1  UNL1       -0.2863
      4 O           5.5970    1.3572   -0.5872 O.3     1  UNL1       -0.4770
      5 O           5.9639   -0.7085    0.3232 O.2     1  UNL1       -0.2449
      6 N          -2.7342    0.3388   -0.0041 N.pl3   1  UNL1       -0.3224
      7 N          -5.5798    0.1029    0.0764 N.3     1  UNL1       -0.3024
      8 N           1.8289   -1.3589   -0.1703 N.ar    1  UNL1       -0.2725
      9 N           1.3241   -2.6747   -0.2209 N.3     1  UNL1       -0.1825
     10 C          -3.5550    1.0006   -1.0228 C.3     1  UNL1        0.0252
     11 C          -3.4126    0.0413    1.2637 C.3     1  UNL1        0.0252
     12 C          -4.8832    0.2618   -1.2059 C.3     1  UNL1        0.0144
     13 C          -4.7445   -0.6672    1.0063 C.3     1  UNL1        0.0144
     14 C          -1.3528    0.5602    0.0256 C.ar    1  UNL1        0.1099
     15 C          -0.4558   -0.4954   -0.1251 C.ar    1  UNL1        0.1717
     16 C           0.9245   -0.2737   -0.0711 C.ar    1  UNL1        0.1128
     17 C           1.4011    1.0373    0.0852 C.ar    1  UNL1        0.0538
     18 C          -0.8683    1.8580    0.1963 C.ar    1  UNL1        0.1487
     19 C          -6.8707   -0.5557   -0.1192 C.3     1  UNL1       -0.0126
     20 C           0.0100   -2.6503   -0.8816 C.3     1  UNL1        0.1600
     21 C           0.5068    2.1028    0.2196 C.ar    1  UNL1       -0.0115
     22 C           3.1874   -1.1221   -0.1745 C.ar    1  UNL1        0.0406
     23 C           2.8686    1.2751    0.1054 C.ar    1  UNL1        0.2037
     24 C           3.7552    0.0861   -0.0526 C.ar    1  UNL1        0.1235
     25 C           1.2307   -3.2164    1.1379 C.3     1  UNL1        0.0110
     26 C           5.2163    0.1693   -0.0711 C.2     1  UNL1        0.3420
     27 H          -3.7488    2.0401   -0.7310 H       1  UNL1        0.0476
     28 H          -3.0270    1.0178   -1.9841 H       1  UNL1        0.0476
     29 H          -2.7881   -0.6055    1.8923 H       1  UNL1        0.0476
     30 H          -3.5795    0.9750    1.8161 H       1  UNL1        0.0476
     31 H          -5.5036    0.8396   -1.9016 H       1  UNL1        0.0442
     32 H          -4.6971   -0.7165   -1.6696 H       1  UNL1        0.0442
     33 H          -4.5536   -1.6749    0.6127 H       1  UNL1        0.0442
     34 H          -5.2613   -0.7844    1.9666 H       1  UNL1        0.0442
     35 H           0.1288   -2.3960   -1.9444 H       1  UNL1        0.0889
     36 H          -0.4288   -3.6552   -0.8692 H       1  UNL1        0.0889
     37 H          -7.4063   -0.6416    0.8329 H       1  UNL1        0.0391
     38 H          -6.7649   -1.5592   -0.5471 H       1  UNL1        0.0391
     39 H          -7.5077    0.0375   -0.7847 H       1  UNL1        0.0391
     40 H           0.8585    3.1228    0.3458 H       1  UNL1        0.0654
     41 H           3.7802   -2.0253   -0.2867 H       1  UNL1        0.0834
     42 H           2.2213   -3.2654    1.6044 H       1  UNL1        0.0410
     43 H           0.8496   -4.2434    1.1100 H       1  UNL1        0.0410
     44 H           0.5765   -2.6278    1.7913 H       1  UNL1        0.0410
     45 H           6.5731    1.4508   -0.6159 H       1  UNL1        0.2954
@<TRIPOS>BOND
     1     1    18    1
     2     2    15    1
     3     2    20    1
     4     3    23    2
     5     4    26    1
     6     4    45    1
     7     5    26    2
     8     6    10    1
     9     6    11    1
    10     6    14    1
    11     7    12    1
    12     7    13    1
    13     7    19    1
    14     8     9    1
    15     8    16   ar
    16     8    22   ar
    17     9    20    1
    18     9    25    1
    19    10    12    1
    20    10    27    1
    21    10    28    1
    22    11    13    1
    23    11    29    1
    24    11    30    1
    25    12    31    1
    26    12    32    1
    27    13    33    1
    28    13    34    1
    29    14    15   ar
    30    14    18   ar
    31    15    16   ar
    32    16    17   ar
    33    17    21   ar
    34    17    23   ar
    35    18    21   ar
    36    19    37    1
    37    19    38    1
    38    19    39    1
    39    20    35    1
    40    20    36    1
    41    21    40    1
    42    22    24   ar
    43    22    41    1
    44    23    24   ar
    45    24    26    1
    46    25    42    1
    47    25    43    1
    48    25    44    1
