@<TRIPOS>MOLECULE
6324616
 97 100 0 0 0
SMALL
GASTEIGER

@<TRIPOS>ATOM
      1 O          -0.1653    1.3444    1.7859 O.3     1  UNL1       -0.4608
      2 O          -0.8924    0.6829   -1.5030 O.3     1  UNL1       -0.3910
      3 O          -4.6175    3.6445   -2.0937 O.3     1  UNL1       -0.3909
      4 O           4.0763    3.5026    0.8440 O.3     1  UNL1       -0.3753
      5 O           4.7567    0.2837   -1.7154 O.2     1  UNL1       -0.4528
      6 O           4.5241   -1.2644    0.1928 O.3     1  UNL1       -0.4436
      7 O           1.6481    0.1321    2.5466 O.2     1  UNL1       -0.2512
      8 O           3.2741   -1.8176   -3.0487 O.2     1  UNL1       -0.2836
      9 O           0.7198   -2.1521    2.9217 O.3     1  UNL1       -0.5057
     10 O           0.8810   -2.4114   -3.1961 O.3     1  UNL1       -0.5061
     11 O          -1.4583   -2.4618    1.7907 O.3     1  UNL1       -0.5042
     12 O          -3.7464   -2.9052    1.6445 O.2     1  UNL1       -0.2702
     13 N          -3.0591   -2.6466   -0.6250 N.am    1  UNL1       -0.2787
     14 C          -0.2837    2.6847   -0.2748 C.3     1  UNL1        0.0200
     15 C          -1.4660    1.8046   -0.8079 C.3     1  UNL1        0.0661
     16 C           0.6134    1.8253    0.6832 C.3     1  UNL1        0.1131
     17 C          -2.5346    2.4114   -1.7627 C.3     1  UNL1        0.0091
     18 C           1.9304    2.4200    1.2663 C.3     1  UNL1        0.0236
     19 C          -3.6560    3.2632   -1.1001 C.3     1  UNL1        0.0661
     20 C          -0.7703    3.9684    0.3888 C.3     1  UNL1       -0.0567
     21 C           2.9054    2.9897    0.2021 C.3     1  UNL1        0.0854
     22 C          -4.3866    2.6101    0.1026 C.3     1  UNL1        0.0009
     23 C          -1.8863    3.1840   -2.9264 C.3     1  UNL1       -0.0577
     24 C           1.7316    3.3983    2.4387 C.3     1  UNL1       -0.0564
     25 C          -5.3478    3.6150    0.7565 C.3     1  UNL1       -0.0566
     26 C           3.3240    1.9659   -0.8248 C.2     1  UNL1       -0.0208
     27 C          -5.1771    1.3733   -0.2708 C.2     1  UNL1       -0.0787
     28 C           0.4859    0.5036    2.6378 C.2     1  UNL1        0.3042
     29 C           4.4372    1.2230   -0.7733 C.2     1  UNL1        0.0882
     30 C          -4.8461    0.1303    0.1116 C.2     1  UNL1       -0.0649
     31 C           4.6894   -1.0703   -1.2341 C.3     1  UNL1        0.3143
     32 C           4.9463    4.1170   -0.0917 C.3     1  UNL1        0.0372
     33 C          -0.4453    0.0847    3.7349 C.3     1  UNL1        0.0332
     34 C           2.5022   -1.8960   -0.7792 C.ar    1  UNL1        0.0788
     35 C           3.4340   -1.6420   -1.8570 C.2     1  UNL1        0.2505
     36 C           3.2212   -1.6537    0.3765 C.ar    1  UNL1        0.1435
     37 C           1.1412   -2.2106   -0.7740 C.ar    1  UNL1        0.0449
     38 C           5.9309   -1.8204   -1.6896 C.3     1  UNL1        0.0210
     39 C          -5.6617   -1.0368   -0.1676 C.2     1  UNL1       -0.0542
     40 C           2.6291   -1.7627    1.6165 C.ar    1  UNL1        0.0342
     41 C           0.5078   -2.2726    0.4916 C.ar    1  UNL1        0.0714
     42 C           1.2678   -2.0724    1.6686 C.ar    1  UNL1        0.1346
     43 C           0.3727   -2.4118   -1.9340 C.ar    1  UNL1        0.1274
     44 C          -0.8826   -2.4809    0.5587 C.ar    1  UNL1        0.1494
     45 C          -5.3070   -2.3205    0.0262 C.2     1  UNL1        0.0115
     46 C          -1.6476   -2.6077   -0.6050 C.ar    1  UNL1        0.0798
     47 C           3.4207   -1.5165    2.8564 C.3     1  UNL1       -0.0327
     48 C          -1.0050   -2.6040   -1.8467 C.ar    1  UNL1        0.0053
     49 C          -3.9174   -2.6363    0.4637 C.2     1  UNL1        0.2441
     50 C          -6.2111   -3.4884   -0.2053 C.3     1  UNL1       -0.0348
     51 H           0.3406    2.9594   -1.1339 H       1  UNL1        0.0359
     52 H          -1.9749    1.3635    0.0523 H       1  UNL1        0.0600
     53 H           0.9099    0.9399    0.1064 H       1  UNL1        0.0741
     54 H          -3.0442    1.5677   -2.2518 H       1  UNL1        0.0348
     55 H           2.5640    1.6461    1.6933 H       1  UNL1        0.0362
     56 H          -3.2324    4.2082   -0.7552 H       1  UNL1        0.0602
     57 H          -1.4406    3.7639    1.2288 H       1  UNL1        0.0234
     58 H           0.0618    4.5732    0.7473 H       1  UNL1        0.0234
     59 H          -1.2835    4.6142   -0.3246 H       1  UNL1        0.0234
     60 H           2.4126    3.8266   -0.3090 H       1  UNL1        0.0645
     61 H          -3.6482    2.3577    0.8721 H       1  UNL1        0.0365
     62 H          -1.4350    4.1215   -2.5891 H       1  UNL1        0.0234
     63 H          -1.1057    2.5848   -3.4069 H       1  UNL1        0.0234
     64 H          -2.6247    3.4287   -3.6970 H       1  UNL1        0.0234
     65 H           0.8711    3.1585    3.0679 H       1  UNL1        0.0234
     66 H           2.6130    3.3819    3.0913 H       1  UNL1        0.0234
     67 H           1.6272    4.4306    2.0947 H       1  UNL1        0.0234
     68 H          -1.6180    0.0771   -1.7287 H       1  UNL1        0.2098
     69 H          -5.8231    3.1801    1.6433 H       1  UNL1        0.0236
     70 H          -4.8075    4.5120    1.0785 H       1  UNL1        0.0236
     71 H          -6.1433    3.9282    0.0712 H       1  UNL1        0.0236
     72 H           2.6446    1.8192   -1.6616 H       1  UNL1        0.0628
     73 H          -4.9443    2.8356   -2.5224 H       1  UNL1        0.2098
     74 H          -6.0831    1.5279   -0.8540 H       1  UNL1        0.0576
     75 H           5.1619    1.2502    0.0289 H       1  UNL1        0.1022
     76 H          -3.9377   -0.0150    0.6891 H       1  UNL1        0.0615
     77 H           5.6602    3.4183   -0.5319 H       1  UNL1        0.0524
     78 H           4.4080    4.6645   -0.8733 H       1  UNL1        0.0524
     79 H           5.5436    4.8506    0.4599 H       1  UNL1        0.0524
     80 H          -1.2575   -0.5321    3.3524 H       1  UNL1        0.0342
     81 H          -0.8688    0.9830    4.1964 H       1  UNL1        0.0342
     82 H           0.1011   -0.4404    4.5228 H       1  UNL1        0.0342
     83 H           6.8225   -1.4047   -1.2068 H       1  UNL1        0.0309
     84 H           5.8784   -2.8811   -1.4216 H       1  UNL1        0.0309
     85 H           6.0771   -1.7379   -2.7719 H       1  UNL1        0.0309
     86 H          -6.6644   -0.8319   -0.5393 H       1  UNL1        0.0622
     87 H           4.0087   -0.5945    2.7691 H       1  UNL1        0.0280
     88 H           4.1292   -2.3433    2.9878 H       1  UNL1        0.0280
     89 H           2.8558   -1.4501    3.7905 H       1  UNL1        0.0280
     90 H          -1.5956   -2.7154   -2.7547 H       1  UNL1        0.0674
     91 H          -3.4781   -2.5960   -1.5518 H       1  UNL1        0.1552
     92 H          -6.3471   -4.0547    0.7218 H       1  UNL1        0.0279
     93 H          -5.7870   -4.1579   -0.9607 H       1  UNL1        0.0279
     94 H          -7.2007   -3.1757   -0.5542 H       1  UNL1        0.0279
     95 H           1.3106   -2.6775    3.4873 H       1  UNL1        0.2922
     96 H           0.1748   -2.5686   -3.8455 H       1  UNL1        0.2922
     97 H          -0.8739   -2.8943    2.4342 H       1  UNL1        0.2923
@<TRIPOS>BOND
     1     1    16    1
     2     1    28    1
     3     2    15    1
     4     2    68    1
     5     3    19    1
     6     3    73    1
     7     4    21    1
     8     4    32    1
     9     5    29    1
    10     5    31    1
    11     6    31    1
    12     6    36    1
    13     7    28    2
    14     8    35    2
    15     9    42    1
    16     9    95    1
    17    10    43    1
    18    10    96    1
    19    11    44    1
    20    11    97    1
    21    12    49    2
    22    13    46    1
    23    13    49   am
    24    13    91    1
    25    14    15    1
    26    14    16    1
    27    14    20    1
    28    14    51    1
    29    15    17    1
    30    15    52    1
    31    16    18    1
    32    16    53    1
    33    17    19    1
    34    17    23    1
    35    17    54    1
    36    18    21    1
    37    18    24    1
    38    18    55    1
    39    19    22    1
    40    19    56    1
    41    20    57    1
    42    20    58    1
    43    20    59    1
    44    21    26    1
    45    21    60    1
    46    22    25    1
    47    22    27    1
    48    22    61    1
    49    23    62    1
    50    23    63    1
    51    23    64    1
    52    24    65    1
    53    24    66    1
    54    24    67    1
    55    25    69    1
    56    25    70    1
    57    25    71    1
    58    26    29    2
    59    26    72    1
    60    27    30    2
    61    27    74    1
    62    28    33    1
    63    29    75    1
    64    30    39    1
    65    30    76    1
    66    31    35    1
    67    31    38    1
    68    32    77    1
    69    32    78    1
    70    32    79    1
    71    33    80    1
    72    33    81    1
    73    33    82    1
    74    34    35    1
    75    34    36   ar
    76    34    37   ar
    77    36    40   ar
    78    37    41   ar
    79    37    43   ar
    80    38    83    1
    81    38    84    1
    82    38    85    1
    83    39    45    2
    84    39    86    1
    85    40    42   ar
    86    40    47    1
    87    41    42   ar
    88    41    44   ar
    89    43    48   ar
    90    44    46   ar
    91    45    49    1
    92    45    50    1
    93    46    48   ar
    94    47    87    1
    95    47    88    1
    96    47    89    1
    97    48    90    1
    98    50    92    1
    99    50    93    1
   100    50    94    1
