@<TRIPOS>MOLECULE
65864
 50 52 0 0 0
SMALL
GASTEIGER

@<TRIPOS>ATOM
      1 S          -2.7377   -0.0021   -0.5713 S.3     1  UNL1       -0.0801
      2 S           3.8136   -3.8266    0.3587 S.3     1  UNL1       -0.0823
      3 F           1.7221   -2.2626    0.3023 F       1  UNL1       -0.1969
      4 F           1.8168   -3.7127   -1.3218 F       1  UNL1       -0.1969
      5 O           1.4961    1.1045   -1.9572 O.3     1  UNL1       -0.3487
      6 O           4.6612    1.9142   -0.2622 O.3     1  UNL1       -0.3481
      7 O           2.9463    0.8361    2.2260 O.2     1  UNL1       -0.2699
      8 O           0.1097    2.5036    2.6122 O.3     1  UNL1       -0.4763
      9 O          -1.0011    0.5278    2.3082 O.2     1  UNL1       -0.2437
     10 O           4.9502   -1.0150    1.0589 O.2     1  UNL1       -0.2748
     11 O          -6.5682   -2.1775    1.5047 O.3     1  UNL1       -0.3932
     12 N           1.5998    1.4696    0.4050 N.am    1  UNL1       -0.2300
     13 N           3.7169   -0.2838   -0.7661 N.am    1  UNL1       -0.2760
     14 N          -5.4538   -0.5271   -0.5999 N.ar    1  UNL1       -0.2180
     15 N          -5.0037    1.5942   -0.6288 N.ar    1  UNL1       -0.1015
     16 N          -6.6455    0.0859   -0.6254 N.ar    1  UNL1       -0.0431
     17 N          -6.3640    1.3830   -0.6425 N.ar    1  UNL1       -0.0222
     18 C           2.2135    1.7267   -0.8806 C.3     1  UNL1        0.1869
     19 C           3.4858    1.0819   -0.2835 C.3     1  UNL1        0.2580
     20 C           2.7118    1.1156    1.0741 C.2     1  UNL1        0.2773
     21 C           0.2547    1.5071    0.5436 C.2     1  UNL1        0.1254
     22 C          -0.5211    1.5499   -0.5649 C.2     1  UNL1       -0.0055
     23 C           0.0993    1.4560   -1.9666 C.3     1  UNL1        0.0743
     24 C          -2.0221    1.6517   -0.5877 C.3     1  UNL1        0.0267
     25 C          -0.2931    1.4299    1.9018 C.2     1  UNL1        0.3515
     26 C           4.4396   -1.2248   -0.0404 C.2     1  UNL1        0.2255
     27 C           5.1645    2.2938   -1.5347 C.3     1  UNL1        0.0396
     28 C           4.5333   -2.5683   -0.7227 C.3     1  UNL1        0.0753
     29 C          -4.4601    0.3991   -0.6020 C.ar    1  UNL1        0.2097
     30 C          -5.3752   -1.9657   -0.5764 C.3     1  UNL1        0.0690
     31 C           2.0715   -3.5384   -0.0004 C.3     1  UNL1        0.2857
     32 C          -5.3610   -2.5261    0.8395 C.3     1  UNL1        0.0639
     33 H           2.3162    2.8048   -1.0659 H       1  UNL1        0.0866
     34 H           3.3399   -0.5619   -1.6690 H       1  UNL1        0.1520
     35 H          -0.0064    2.4157   -2.4845 H       1  UNL1        0.0608
     36 H          -0.4096    0.6881   -2.5575 H       1  UNL1        0.0608
     37 H          -2.3794    2.2108    0.2844 H       1  UNL1        0.0428
     38 H          -2.3530    2.2044   -1.4743 H       1  UNL1        0.0428
     39 H           5.3942    1.4114   -2.1388 H       1  UNL1        0.0525
     40 H           4.4492    2.9318   -2.0602 H       1  UNL1        0.0525
     41 H           6.0873    2.8602   -1.3833 H       1  UNL1        0.0525
     42 H           5.5945   -2.7918   -0.8722 H       1  UNL1        0.0473
     43 H           4.0528   -2.5785   -1.7048 H       1  UNL1        0.0473
     44 H          -0.2367    2.4898    3.5298 H       1  UNL1        0.2954
     45 H          -4.4851   -2.2798   -1.1295 H       1  UNL1        0.0533
     46 H          -6.2497   -2.3413   -1.1218 H       1  UNL1        0.0533
     47 H           1.4380   -4.2205    0.5720 H       1  UNL1        0.1143
     48 H          -5.2841   -3.6175    0.8114 H       1  UNL1        0.0575
     49 H          -4.5210   -2.1268    1.4167 H       1  UNL1        0.0575
     50 H          -6.5214   -2.5582    2.3983 H       1  UNL1        0.2095
@<TRIPOS>BOND
     1     1    24    1
     2     1    29    1
     3     2    28    1
     4     2    31    1
     5     3    31    1
     6     4    31    1
     7     5    18    1
     8     5    23    1
     9     6    19    1
    10     6    27    1
    11     7    20    2
    12     8    25    1
    13     8    44    1
    14     9    25    2
    15    10    26    2
    16    11    32    1
    17    11    50    1
    18    12    18    1
    19    12    20   am
    20    12    21    1
    21    13    19    1
    22    13    26   am
    23    13    34    1
    24    14    16   ar
    25    14    29   ar
    26    14    30    1
    27    15    17   ar
    28    15    29   ar
    29    16    17   ar
    30    18    19    1
    31    18    33    1
    32    19    20    1
    33    21    22    2
    34    21    25    1
    35    22    23    1
    36    22    24    1
    37    23    35    1
    38    23    36    1
    39    24    37    1
    40    24    38    1
    41    26    28    1
    42    27    39    1
    43    27    40    1
    44    27    41    1
    45    28    42    1
    46    28    43    1
    47    30    32    1
    48    30    45    1
    49    30    46    1
    50    31    47    1
    51    32    48    1
    52    32    49    1
