@<TRIPOS>MOLECULE
9802884
 50 54 0 0 0
SMALL
GASTEIGER

@<TRIPOS>ATOM
      1 F          -1.6724    2.6508   -0.3431 F       1  UNL1       -0.2035
      2 O           3.3501    2.8488   -0.1039 O.2     1  UNL1       -0.2863
      3 O           5.7330    2.1429    0.7224 O.3     1  UNL1       -0.4770
      4 O           6.4230    0.1758   -0.2182 O.2     1  UNL1       -0.2449
      5 N          -2.3382    0.0157   -0.1566 N.pl3   1  UNL1       -0.3248
      6 N          -5.6469   -0.6768    1.2971 N.3     1  UNL1       -0.3114
      7 N           2.4239   -1.1111    0.1846 N.ar    1  UNL1       -0.3416
      8 N          -0.7843   -3.0266    0.1802 N.1     1  UNL1       -0.1907
      9 C          -4.5380   -0.3503   -0.9535 C.3     1  UNL1       -0.0084
     10 C          -4.4339   -0.8319    0.4987 C.3     1  UNL1        0.0275
     11 C          -3.0654   -0.3031   -1.3881 C.3     1  UNL1        0.0166
     12 C          -3.1895   -0.1035    1.0292 C.3     1  UNL1        0.0280
     13 C          -5.2094    1.0245   -1.0668 C.3     1  UNL1       -0.0462
     14 C           2.2604   -2.5815    0.2988 C.3     1  UNL1        0.0347
     15 C          -6.5025    1.0552   -0.2616 C.3     1  UNL1       -0.0401
     16 C           3.3649   -3.5021   -0.0932 C.3     1  UNL1       -0.0302
     17 C           2.1148   -3.4264   -0.9199 C.3     1  UNL1       -0.0302
     18 C          -6.2461    0.6545    1.1887 C.3     1  UNL1       -0.0038
     19 C          -1.0094    0.3821   -0.1181 C.ar    1  UNL1        0.0850
     20 C           1.3581   -0.1760    0.0509 C.ar    1  UNL1        0.0726
     21 C           0.0093   -0.5658    0.0141 C.ar    1  UNL1        0.0996
     22 C           1.6499    1.2016   -0.0502 C.ar    1  UNL1        0.0501
     23 C          -0.7005    1.7358   -0.2163 C.ar    1  UNL1        0.1464
     24 C           3.7286   -0.6583    0.2147 C.ar    1  UNL1        0.0232
     25 C           0.6285    2.1501   -0.1830 C.ar    1  UNL1       -0.0117
     26 C           4.1137    0.6209    0.1268 C.ar    1  UNL1        0.1220
     27 C           3.0634    1.6612   -0.0162 C.ar    1  UNL1        0.2035
     28 C          -0.4305   -1.9296    0.1062 C.1     1  UNL1        0.1032
     29 C           5.5455    0.9227    0.1766 C.2     1  UNL1        0.3420
     30 H          -5.1011   -1.0659   -1.5649 H       1  UNL1        0.0331
     31 H          -4.2018   -1.9060    0.4770 H       1  UNL1        0.0479
     32 H          -2.7469   -1.2833   -1.7606 H       1  UNL1        0.0467
     33 H          -2.8916    0.4422   -2.1718 H       1  UNL1        0.0467
     34 H          -3.4131    0.8964    1.4154 H       1  UNL1        0.0479
     35 H          -2.7086   -0.6823    1.8255 H       1  UNL1        0.0479
     36 H          -5.4175    1.2507   -2.1191 H       1  UNL1        0.0269
     37 H          -4.5423    1.8168   -0.7042 H       1  UNL1        0.0269
     38 H           1.7709   -2.8673    1.2249 H       1  UNL1        0.0528
     39 H          -6.9355    2.0613   -0.2964 H       1  UNL1        0.0278
     40 H          -7.2354    0.3745   -0.7125 H       1  UNL1        0.0278
     41 H          -5.4438   -0.8786    2.2754 H       1  UNL1        0.1223
     42 H           3.5127   -4.3924    0.5087 H       1  UNL1        0.0286
     43 H           4.2618   -3.1897   -0.6123 H       1  UNL1        0.0286
     44 H           2.1806   -2.9500   -1.8907 H       1  UNL1        0.0286
     45 H           1.4583   -4.2869   -0.8890 H       1  UNL1        0.0286
     46 H          -5.6146    1.4021    1.6822 H       1  UNL1        0.0424
     47 H          -7.2000    0.6483    1.7279 H       1  UNL1        0.0424
     48 H           4.4862   -1.4122    0.3852 H       1  UNL1        0.0819
     49 H           0.8486    3.2111   -0.2611 H       1  UNL1        0.0654
     50 H           6.6832    2.3819    0.7731 H       1  UNL1        0.2954
@<TRIPOS>BOND
     1     1    23    1
     2     2    27    2
     3     3    29    1
     4     3    50    1
     5     4    29    2
     6     5    11    1
     7     5    12    1
     8     5    19    1
     9     6    10    1
    10     6    18    1
    11     6    41    1
    12     7    14    1
    13     7    20   ar
    14     7    24   ar
    15     8    28    3
    16     9    10    1
    17     9    11    1
    18     9    13    1
    19     9    30    1
    20    10    12    1
    21    10    31    1
    22    11    32    1
    23    11    33    1
    24    12    34    1
    25    12    35    1
    26    13    15    1
    27    13    36    1
    28    13    37    1
    29    14    16    1
    30    14    17    1
    31    14    38    1
    32    15    18    1
    33    15    39    1
    34    15    40    1
    35    16    17    1
    36    16    42    1
    37    16    43    1
    38    17    44    1
    39    17    45    1
    40    18    46    1
    41    18    47    1
    42    19    21   ar
    43    19    23   ar
    44    20    21   ar
    45    20    22   ar
    46    21    28    1
    47    22    25   ar
    48    22    27   ar
    49    23    25   ar
    50    24    26   ar
    51    24    48    1
    52    25    49    1
    53    26    27   ar
    54    26    29    1
