@<TRIPOS>MOLECULE
65947
 52 56 0 0 0
SMALL
GASTEIGER

@<TRIPOS>ATOM
      1 S           4.7106    3.0769   -0.1651 S.3     1  UNL1       -0.0818
      2 F           0.4375   -3.4431    0.1297 F       1  UNL1       -0.2035
      3 O          -5.6682    1.0849    0.7613 O.2     1  UNL1       -0.3943
      4 O           5.3161   -2.0712   -0.2319 O.2     1  UNL1       -0.2862
      5 O          -7.2084    1.4794   -0.9391 O.2     1  UNL1       -0.3959
      6 O           7.3360   -0.5209   -1.0156 O.3     1  UNL1       -0.4770
      7 O           7.3899    1.4580    0.1294 O.2     1  UNL1       -0.2449
      8 O          -6.5469    3.1809    0.4504 O.2     1  UNL1       -0.2021
      9 N          -1.0012   -1.0773    0.2474 N.pl3   1  UNL1       -0.3252
     10 N          -3.8231   -0.9472    0.6705 N.3     1  UNL1       -0.2921
     11 N           3.2247    1.3354   -0.0583 N.ar    1  UNL1       -0.3216
     12 C          -1.7801    0.0234   -0.3281 C.3     1  UNL1        0.0251
     13 C          -1.6024   -1.7401    1.4116 C.3     1  UNL1        0.0251
     14 C          -3.2303   -0.4081   -0.5594 C.3     1  UNL1        0.0151
     15 C          -3.0578   -2.1154    1.1234 C.3     1  UNL1        0.0151
     16 C           0.3943   -1.0685    0.1437 C.ar    1  UNL1        0.0674
     17 C           2.4681    0.1607   -0.0061 C.ar    1  UNL1        0.0564
     18 C           2.9386    2.7172   -0.0316 C.3     1  UNL1        0.0845
     19 C           4.5192    1.3632   -0.1566 C.ar    1  UNL1        0.0971
     20 C          -5.2238   -1.3056    0.4508 C.3     1  UNL1        0.0607
     21 C           1.0768    0.1486    0.0982 C.ar    1  UNL1       -0.0136
     22 C           3.1715   -1.0640   -0.0643 C.ar    1  UNL1        0.0489
     23 C           1.0956   -2.2754    0.0858 C.ar    1  UNL1        0.1451
     24 C           5.3408    0.3061   -0.2230 C.ar    1  UNL1        0.1359
     25 C           2.4870   -2.2790   -0.0182 C.ar    1  UNL1       -0.0118
     26 C           4.6673   -1.0333   -0.1775 C.ar    1  UNL1        0.2046
     27 C           2.3900    3.1571    1.3029 C.3     1  UNL1       -0.0344
     28 C          -5.9324   -0.0631    0.0414 C.ar    1  UNL1        0.1638
     29 C          -6.8031    0.1599   -0.9198 C.ar    1  UNL1        0.1484
     30 C           6.7810    0.5044   -0.3315 C.2     1  UNL1        0.3431
     31 C          -7.3873   -0.7475   -1.9366 C.3     1  UNL1       -0.0028
     32 C          -6.4798    2.0037    0.1163 C.ar    1  UNL1        0.5207
     33 H          -1.7586    0.8899    0.3454 H       1  UNL1        0.0476
     34 H          -1.3598    0.3314   -1.2939 H       1  UNL1        0.0476
     35 H          -1.0650   -2.6507    1.6965 H       1  UNL1        0.0476
     36 H          -1.5546   -1.0608    2.2730 H       1  UNL1        0.0476
     37 H          -3.7494    0.4799   -0.9348 H       1  UNL1        0.0442
     38 H          -3.2607   -1.1594   -1.3610 H       1  UNL1        0.0442
     39 H          -3.0881   -2.9157    0.3716 H       1  UNL1        0.0442
     40 H          -3.4970   -2.5161    2.0450 H       1  UNL1        0.0442
     41 H           2.3425    3.0434   -0.8911 H       1  UNL1        0.0645
     42 H          -5.3255   -2.0978   -0.2998 H       1  UNL1        0.0508
     43 H          -5.6698   -1.6676    1.3848 H       1  UNL1        0.0508
     44 H           0.5425    1.0922    0.1440 H       1  UNL1        0.0658
     45 H           3.0131   -3.2279   -0.0620 H       1  UNL1        0.0654
     46 H           2.9523    2.7564    2.1553 H       1  UNL1        0.0258
     47 H           2.3993    4.2503    1.3842 H       1  UNL1        0.0258
     48 H           1.3472    2.8472    1.4250 H       1  UNL1        0.0258
     49 H          -7.0276   -1.7747   -1.8300 H       1  UNL1        0.0309
     50 H          -7.1304   -0.4034   -2.9433 H       1  UNL1        0.0309
     51 H          -8.4781   -0.7641   -1.8470 H       1  UNL1        0.0309
     52 H           8.3073   -0.4191   -1.1074 H       1  UNL1        0.2954
@<TRIPOS>BOND
     1     1    18    1
     2     1    19    1
     3     2    23    1
     4     3    28   ar
     5     3    32   ar
     6     4    26    2
     7     5    29   ar
     8     5    32   ar
     9     6    30    1
    10     6    52    1
    11     7    30    2
    12     8    32    2
    13     9    12    1
    14     9    13    1
    15     9    16    1
    16    10    14    1
    17    10    15    1
    18    10    20    1
    19    11    17   ar
    20    11    18    1
    21    11    19   ar
    22    12    14    1
    23    12    33    1
    24    12    34    1
    25    13    15    1
    26    13    35    1
    27    13    36    1
    28    14    37    1
    29    14    38    1
    30    15    39    1
    31    15    40    1
    32    16    21   ar
    33    16    23   ar
    34    17    21   ar
    35    17    22   ar
    36    18    27    1
    37    18    41    1
    38    19    24   ar
    39    20    28    1
    40    20    42    1
    41    20    43    1
    42    21    44    1
    43    22    25   ar
    44    22    26   ar
    45    23    25   ar
    46    24    26   ar
    47    24    30    1
    48    25    45    1
    49    27    46    1
    50    27    47    1
    51    27    48    1
    52    28    29   ar
    53    29    31    1
    54    31    49    1
    55    31    50    1
    56    31    51    1
