@<TRIPOS>MOLECULE
157385
 57 58 0 0 0
SMALL
GASTEIGER

@<TRIPOS>ATOM
      1 CL          0.8156   -3.1730    0.8241 Cl      1  UNL1       -0.1201
      2 S           4.7256   -1.2054    1.3645 S.3     1  UNL1       -0.1305
      3 O           3.0198   -0.7560   -0.7154 O.3     1  UNL1       -0.3557
      4 O           1.6731    1.7565   -1.2390 O.3     1  UNL1       -0.3865
      5 O           3.1603    3.1861    0.6194 O.3     1  UNL1       -0.3865
      6 O           5.5597    1.6205    0.5270 O.3     1  UNL1       -0.3857
      7 O          -1.4116    0.8181   -1.8658 O.2     1  UNL1       -0.2741
      8 N          -0.5686   -0.3905   -0.0638 N.am    1  UNL1       -0.3072
      9 N          -3.1228    2.0685   -0.2528 N.3     1  UNL1       -0.3056
     10 C           1.8671   -0.2978    0.0083 C.3     1  UNL1        0.1081
     11 C           0.6405   -0.8695   -0.6959 C.3     1  UNL1        0.0678
     12 C           1.8351    1.2330    0.0816 C.3     1  UNL1        0.1114
     13 C          -5.0235    0.0771    0.7560 C.3     1  UNL1       -0.0383
     14 C           3.1372    1.7624    0.6870 C.3     1  UNL1        0.1125
     15 C          -2.6609    0.7447    0.1639 C.3     1  UNL1        0.0850
     16 C          -3.7514   -0.3151   -0.0052 C.3     1  UNL1       -0.0262
     17 C           4.3389    1.2041   -0.0751 C.3     1  UNL1        0.1188
     18 C          -5.4523    1.4932    0.3533 C.3     1  UNL1       -0.0375
     19 C           4.2797   -0.3269   -0.1820 C.3     1  UNL1        0.1327
     20 C           0.6661   -2.4091   -0.7907 C.3     1  UNL1        0.0520
     21 C          -4.3008    2.4856    0.5089 C.3     1  UNL1       -0.0032
     22 C          -1.4912    0.4145   -0.7084 C.2     1  UNL1        0.2304
     23 C          -6.1450   -0.9276    0.5060 C.3     1  UNL1       -0.0530
     24 C          -0.5638   -2.9760   -1.4948 C.3     1  UNL1       -0.0470
     25 C          -5.7411   -2.3261    0.9322 C.3     1  UNL1       -0.0650
     26 C           4.5143   -2.8914    0.7565 C.3     1  UNL1       -0.0156
     27 H           1.9152   -0.6753    1.0360 H       1  UNL1        0.0642
     28 H           0.6457   -0.5159   -1.7358 H       1  UNL1        0.0539
     29 H           0.9896    1.6000    0.6725 H       1  UNL1        0.0647
     30 H          -4.7937    0.0845    1.8307 H       1  UNL1        0.0302
     31 H           3.2023    1.4982    1.7483 H       1  UNL1        0.0647
     32 H          -2.3358    0.7938    1.2110 H       1  UNL1        0.0556
     33 H          -3.3596   -1.2707    0.3621 H       1  UNL1        0.0288
     34 H          -3.9787   -0.4614   -1.0703 H       1  UNL1        0.0288
     35 H           4.3407    1.6314   -1.0858 H       1  UNL1        0.0655
     36 H          -6.2975    1.8180    0.9717 H       1  UNL1        0.0280
     37 H          -5.7998    1.4985   -0.6881 H       1  UNL1        0.0280
     38 H           5.0444   -0.6340   -0.9047 H       1  UNL1        0.0740
     39 H           1.5511   -2.7255   -1.3533 H       1  UNL1        0.0482
     40 H          -0.7402   -0.6769    0.8957 H       1  UNL1        0.1492
     41 H          -4.0375    2.6014    1.5672 H       1  UNL1        0.0424
     42 H          -4.6196    3.4725    0.1559 H       1  UNL1        0.0424
     43 H          -3.3726    2.0412   -1.2422 H       1  UNL1        0.1226
     44 H          -7.0338   -0.6269    1.0739 H       1  UNL1        0.0265
     45 H          -6.4317   -0.9377   -0.5523 H       1  UNL1        0.0265
     46 H           2.3033    1.3079   -1.8272 H       1  UNL1        0.2100
     47 H          -0.6817   -2.5277   -2.4870 H       1  UNL1        0.0244
     48 H          -0.4666   -4.0587   -1.6322 H       1  UNL1        0.0244
     49 H          -1.4842   -2.7956   -0.9293 H       1  UNL1        0.0244
     50 H           3.0522    3.4415   -0.3127 H       1  UNL1        0.2100
     51 H          -4.9953   -2.7605    0.2601 H       1  UNL1        0.0230
     52 H          -5.3452   -2.3373    1.9528 H       1  UNL1        0.0230
     53 H          -6.6144   -2.9867    0.9068 H       1  UNL1        0.0230
     54 H           6.2879    1.2322    0.0126 H       1  UNL1        0.2100
     55 H           4.6055   -3.5875    1.5946 H       1  UNL1        0.0341
     56 H           5.3000   -3.1246    0.0327 H       1  UNL1        0.0341
     57 H           3.5452   -3.0442    0.2871 H       1  UNL1        0.0341
@<TRIPOS>BOND
     1     1    20    1
     2     2    19    1
     3     2    26    1
     4     3    10    1
     5     3    19    1
     6     4    12    1
     7     4    46    1
     8     5    14    1
     9     5    50    1
    10     6    17    1
    11     6    54    1
    12     7    22    2
    13     8    11    1
    14     8    22   am
    15     8    40    1
    16     9    15    1
    17     9    21    1
    18     9    43    1
    19    10    11    1
    20    10    12    1
    21    10    27    1
    22    11    20    1
    23    11    28    1
    24    12    14    1
    25    12    29    1
    26    13    16    1
    27    13    18    1
    28    13    23    1
    29    13    30    1
    30    14    17    1
    31    14    31    1
    32    15    16    1
    33    15    22    1
    34    15    32    1
    35    16    33    1
    36    16    34    1
    37    17    19    1
    38    17    35    1
    39    18    21    1
    40    18    36    1
    41    18    37    1
    42    19    38    1
    43    20    24    1
    44    20    39    1
    45    21    41    1
    46    21    42    1
    47    23    25    1
    48    23    44    1
    49    23    45    1
    50    24    47    1
    51    24    48    1
    52    24    49    1
    53    25    51    1
    54    25    52    1
    55    25    53    1
    56    26    55    1
    57    26    56    1
    58    26    57    1
