@<TRIPOS>MOLECULE
65957
 38 41 0 0 0
SMALL
GASTEIGER

@<TRIPOS>ATOM
      1 F          -2.5894    2.7942    0.2412 F       1  UNL1       -0.2050
      2 O          -1.7439   -1.8470   -0.1236 O.3     1  UNL1       -0.4874
      3 O           2.4468    2.4733    0.0075 O.2     1  UNL1       -0.2863
      4 O           4.7865    1.4109    0.5384 O.3     1  UNL1       -0.4770
      5 O           5.1758   -0.4864   -0.6777 O.2     1  UNL1       -0.2449
      6 N          -4.1146   -0.1229    1.4568 N.3     1  UNL1       -0.3209
      7 N           1.0884   -1.3632   -0.1152 N.ar    1  UNL1       -0.3368
      8 C          -3.6244    0.1912    0.1095 C.3     1  UNL1        0.0484
      9 C          -4.2441   -0.5001   -1.0643 C.3     1  UNL1       -0.0285
     10 C          -4.5109    0.9567   -0.8222 C.3     1  UNL1       -0.0285
     11 C          -2.1569    0.4669    0.0705 C.ar    1  UNL1        0.0512
     12 C          -1.2338   -0.5740   -0.0453 C.ar    1  UNL1        0.1523
     13 C           0.1456   -0.3173   -0.0550 C.ar    1  UNL1        0.0958
     14 C          -1.7115    1.7859    0.1399 C.ar    1  UNL1        0.1326
     15 C           0.5481   -2.7239   -0.0490 C.3     1  UNL1        0.0658
     16 C           0.5762    1.0217    0.0042 C.ar    1  UNL1        0.0523
     17 C          -0.8207   -2.7566   -0.7303 C.3     1  UNL1        0.1101
     18 C          -0.3467    2.0687    0.1001 C.ar    1  UNL1       -0.0131
     19 C           2.4366   -1.0681   -0.1340 C.ar    1  UNL1        0.0233
     20 C           2.0324    1.3215   -0.0275 C.ar    1  UNL1        0.2036
     21 C           0.4779   -3.1910    1.4073 C.3     1  UNL1       -0.0410
     22 C           2.9630    0.1627   -0.1015 C.ar    1  UNL1        0.1220
     23 C           4.4197    0.2968   -0.1299 C.2     1  UNL1        0.3420
     24 H          -5.0589   -1.1941   -0.8918 H       1  UNL1        0.0287
     25 H          -3.6368   -0.7517   -1.9264 H       1  UNL1        0.0287
     26 H          -4.0859    1.6545   -1.5346 H       1  UNL1        0.0287
     27 H          -5.5044    1.2348   -0.4884 H       1  UNL1        0.0287
     28 H          -3.7260   -1.0096    1.7767 H       1  UNL1        0.1190
     29 H          -5.1267   -0.2455    1.4590 H       1  UNL1        0.1190
     30 H           1.2103   -3.4081   -0.5952 H       1  UNL1        0.0559
     31 H          -0.7391   -2.5175   -1.7992 H       1  UNL1        0.0717
     32 H          -1.2555   -3.7598   -0.6593 H       1  UNL1        0.0717
     33 H          -0.0230    3.1044    0.1510 H       1  UNL1        0.0654
     34 H           3.0579   -1.9573   -0.1716 H       1  UNL1        0.0819
     35 H          -0.1524   -2.5380    2.0205 H       1  UNL1        0.0251
     36 H           0.0730   -4.2065    1.4674 H       1  UNL1        0.0251
     37 H           1.4755   -3.2002    1.8598 H       1  UNL1        0.0251
     38 H           5.7596    1.5355    0.5412 H       1  UNL1        0.2954
@<TRIPOS>BOND
     1     1    14    1
     2     2    12    1
     3     2    17    1
     4     3    20    2
     5     4    23    1
     6     4    38    1
     7     5    23    2
     8     6     8    1
     9     6    28    1
    10     6    29    1
    11     7    13   ar
    12     7    15    1
    13     7    19   ar
    14     8     9    1
    15     8    10    1
    16     8    11    1
    17     9    10    1
    18     9    24    1
    19     9    25    1
    20    10    26    1
    21    10    27    1
    22    11    12   ar
    23    11    14   ar
    24    12    13   ar
    25    13    16   ar
    26    14    18   ar
    27    15    17    1
    28    15    21    1
    29    15    30    1
    30    16    18   ar
    31    16    20   ar
    32    17    31    1
    33    17    32    1
    34    18    33    1
    35    19    22   ar
    36    19    34    1
    37    20    22   ar
    38    21    35    1
    39    21    36    1
    40    21    37    1
    41    22    23    1
