@<TRIPOS>MOLECULE
114811
 35 35 0 0 0
SMALL
GASTEIGER

@<TRIPOS>ATOM
      1 CL          5.9842    1.8829   -0.1496 Cl      1  UNL1       -0.0945
      2 CL          6.4075   -0.8885    0.6702 Cl      1  UNL1       -0.0945
      3 S          -5.1744    0.2284    0.4057 S.O2    1  UNL1       -0.0059
      4 F           1.5776   -2.6029   -0.2212 F       1  UNL1       -0.2470
      5 O           0.9884    1.3136   -1.6632 O.3     1  UNL1       -0.3853
      6 O          -5.4476    1.5384    0.9797 O.2     1  UNL1       -0.1696
      7 O          -5.9681   -0.2473   -0.7192 O.2     1  UNL1       -0.1696
      8 O           3.8513    0.5522    1.6607 O.2     1  UNL1       -0.2729
      9 N           2.9801   -0.1795   -0.3594 N.am    1  UNL1       -0.3050
     10 C           1.6016   -0.2627    0.0801 C.3     1  UNL1        0.0813
     11 C           0.6579    0.0392   -1.1023 C.3     1  UNL1        0.1008
     12 C          -0.8052    0.0865   -0.7239 C.ar    1  UNL1       -0.0172
     13 C           1.3608   -1.6334    0.7082 C.3     1  UNL1        0.1112
     14 C          -1.7008   -0.7426   -1.3776 C.ar    1  UNL1       -0.0543
     15 C          -1.2195    0.9586    0.2689 C.ar    1  UNL1       -0.0543
     16 C          -3.4849    0.1742   -0.0308 C.ar    1  UNL1        0.0879
     17 C          -3.0506   -0.6984   -1.0287 C.ar    1  UNL1       -0.0366
     18 C          -2.5693    1.0027    0.6180 C.ar    1  UNL1       -0.0366
     19 C           3.9994    0.2272    0.4835 C.2     1  UNL1        0.2462
     20 C          -5.3351   -0.9800    1.7008 C.3     1  UNL1        0.0596
     21 C           5.3467    0.2314   -0.1999 C.3     1  UNL1        0.1830
     22 H           1.4740    0.4989    0.8586 H       1  UNL1        0.0553
     23 H           0.8184   -0.7002   -1.8973 H       1  UNL1        0.0663
     24 H           0.3394   -1.7448    1.0824 H       1  UNL1        0.0634
     25 H           2.0492   -1.8186    1.5389 H       1  UNL1        0.0634
     26 H           3.2022   -0.5010   -1.2970 H       1  UNL1        0.1492
     27 H          -1.3745   -1.4277   -2.1546 H       1  UNL1        0.0622
     28 H          -0.5237    1.6190    0.7772 H       1  UNL1        0.0622
     29 H          -3.7453   -1.3571   -1.5422 H       1  UNL1        0.0637
     30 H          -2.8843    1.6868    1.4009 H       1  UNL1        0.0637
     31 H           1.9308    1.2920   -1.9014 H       1  UNL1        0.2103
     32 H          -5.0546   -1.9598    1.3097 H       1  UNL1        0.0468
     33 H          -4.6901   -0.6951    2.5342 H       1  UNL1        0.0468
     34 H          -6.3779   -0.9928    2.0248 H       1  UNL1        0.0468
     35 H           5.2915   -0.0854   -1.2444 H       1  UNL1        0.0732
@<TRIPOS>BOND
     1     1    21    1
     2     2    21    1
     3     3     6    2
     4     3     7    2
     5     3    16    1
     6     3    20    1
     7     4    13    1
     8     5    11    1
     9     5    31    1
    10     8    19    2
    11     9    10    1
    12     9    19   am
    13     9    26    1
    14    10    11    1
    15    10    13    1
    16    10    22    1
    17    11    12    1
    18    11    23    1
    19    12    14   ar
    20    12    15   ar
    21    13    24    1
    22    13    25    1
    23    14    17   ar
    24    14    27    1
    25    15    18   ar
    26    15    28    1
    27    16    17   ar
    28    16    18   ar
    29    17    29    1
    30    18    30    1
    31    19    21    1
    32    20    32    1
    33    20    33    1
    34    20    34    1
    35    21    35    1
