@<TRIPOS>MOLECULE
71188
 48 51 0 0 0
SMALL
GASTEIGER

@<TRIPOS>ATOM
      1 F          -1.4686    2.9628    0.3522 F       1  UNL1       -0.2035
      2 O           3.5345    2.4136    0.2663 O.2     1  UNL1       -0.2863
      3 O           5.8178    1.2107    0.7267 O.3     1  UNL1       -0.4770
      4 O           6.1647   -0.5501   -0.6908 O.2     1  UNL1       -0.2449
      5 N           2.0384   -1.3365   -0.3000 N.ar    1  UNL1       -0.3425
      6 N          -2.5251    0.4281   -0.0273 N.pl3   1  UNL1       -0.3252
      7 N          -5.3144   -0.1140   -0.3189 N.3     1  UNL1       -0.2996
      8 C           1.5767   -2.7257   -0.5109 C.3     1  UNL1        0.0347
      9 C           2.0509   -3.8312    0.3727 C.3     1  UNL1       -0.0302
     10 C           0.6250   -3.3689    0.4427 C.3     1  UNL1       -0.0302
     11 C           1.1201   -0.2605   -0.1358 C.ar    1  UNL1        0.0549
     12 C           3.3963   -1.0857   -0.2632 C.ar    1  UNL1        0.0231
     13 C          -3.0751   -0.8536    0.4243 C.3     1  UNL1        0.0251
     14 C          -3.3082    1.1297   -1.0522 C.3     1  UNL1        0.0251
     15 C           1.6106    1.0486    0.0620 C.ar    1  UNL1        0.0488
     16 C          -1.1420    0.6389    0.0021 C.ar    1  UNL1        0.0674
     17 C          -0.2722   -0.4427   -0.1621 C.ar    1  UNL1       -0.0136
     18 C          -4.5543   -0.7049    0.7892 C.3     1  UNL1        0.0147
     19 C          -4.7793    1.2151   -0.6388 C.3     1  UNL1        0.0147
     20 C           3.9647    0.1128   -0.0819 C.ar    1  UNL1        0.1220
     21 C           3.0771    1.2900    0.0975 C.ar    1  UNL1        0.2034
     22 C          -0.6383    1.9219    0.1956 C.ar    1  UNL1        0.1451
     23 C           0.7380    2.1314    0.2262 C.ar    1  UNL1       -0.0118
     24 C          -6.7340   -0.0270    0.0216 C.3     1  UNL1       -0.0038
     25 C          -7.3293   -1.3970    0.2731 C.3     1  UNL1       -0.0524
     26 C           5.4260    0.1941   -0.0703 C.2     1  UNL1        0.3420
     27 H           1.4512   -2.9545   -1.5644 H       1  UNL1        0.0528
     28 H           2.6896   -3.5992    1.2160 H       1  UNL1        0.0286
     29 H           2.2469   -4.7940   -0.0834 H       1  UNL1        0.0286
     30 H          -0.1363   -4.0226    0.0347 H       1  UNL1        0.0286
     31 H           0.3321   -2.8559    1.3507 H       1  UNL1        0.0286
     32 H           3.9987   -1.9781   -0.4046 H       1  UNL1        0.0819
     33 H          -2.5405   -1.2143    1.3121 H       1  UNL1        0.0476
     34 H          -2.9685   -1.6067   -0.3672 H       1  UNL1        0.0476
     35 H          -3.2174    0.5886   -2.0033 H       1  UNL1        0.0476
     36 H          -2.9443    2.1471   -1.2307 H       1  UNL1        0.0476
     37 H          -0.6873   -1.4213   -0.3722 H       1  UNL1        0.0658
     38 H          -4.9088   -1.7116    1.0320 H       1  UNL1        0.0442
     39 H          -4.6498   -0.0931    1.6965 H       1  UNL1        0.0442
     40 H          -4.8800    1.8919    0.2206 H       1  UNL1        0.0442
     41 H          -5.3425    1.6564   -1.4701 H       1  UNL1        0.0442
     42 H           1.1111    3.1403    0.3782 H       1  UNL1        0.0654
     43 H          -6.9051    0.6167    0.8938 H       1  UNL1        0.0424
     44 H          -7.2758    0.4214   -0.8205 H       1  UNL1        0.0424
     45 H          -7.0639   -2.1067   -0.5179 H       1  UNL1        0.0242
     46 H          -7.0289   -1.8144    1.2389 H       1  UNL1        0.0242
     47 H          -8.4226   -1.3239    0.2913 H       1  UNL1        0.0242
     48 H           6.7944    1.2974    0.7603 H       1  UNL1        0.2954
@<TRIPOS>BOND
     1     1    22    1
     2     2    21    2
     3     3    26    1
     4     3    48    1
     5     4    26    2
     6     5     8    1
     7     5    11   ar
     8     5    12   ar
     9     6    13    1
    10     6    14    1
    11     6    16    1
    12     7    18    1
    13     7    19    1
    14     7    24    1
    15     8     9    1
    16     8    10    1
    17     8    27    1
    18     9    10    1
    19     9    28    1
    20     9    29    1
    21    10    30    1
    22    10    31    1
    23    11    15   ar
    24    11    17   ar
    25    12    20   ar
    26    12    32    1
    27    13    18    1
    28    13    33    1
    29    13    34    1
    30    14    19    1
    31    14    35    1
    32    14    36    1
    33    15    21   ar
    34    15    23   ar
    35    16    17   ar
    36    16    22   ar
    37    17    37    1
    38    18    38    1
    39    18    39    1
    40    19    40    1
    41    19    41    1
    42    20    21   ar
    43    20    26    1
    44    22    23   ar
    45    23    42    1
    46    24    25    1
    47    24    43    1
    48    24    44    1
    49    25    45    1
    50    25    46    1
    51    25    47    1
