@<TRIPOS>MOLECULE
25273230
 45 48 0 0 0
SMALL
GASTEIGER

@<TRIPOS>ATOM
      1 F          -2.7509    3.2457    0.2573 F       1  UNL1       -0.2035
      2 F           0.9708   -5.9419    0.0282 F       1  UNL1       -0.2055
      3 O           2.2583    3.6159    0.2549 O.2     1  UNL1       -0.2865
      4 O           5.0119    2.0618   -1.2355 O.co2   1  UNL1       -0.5445
      5 O           5.1546    1.8503    1.0379 O.co2   1  UNL1       -0.5445
      6 N          -3.3254    0.5455   -0.0070 N.pl3   1  UNL1       -0.3175
      7 N          -5.9468   -0.4541   -0.2976 N.4     1  UNL1        0.2292
      8 N           1.4954   -0.4048   -0.0484 N.ar    1  UNL1       -0.3150
      9 C          -4.1757    1.0453   -1.0982 C.3     1  UNL1        0.0525
     10 C          -3.6492   -0.7925    0.5035 C.3     1  UNL1        0.0525
     11 C          -5.6465    0.9439   -0.7215 C.3     1  UNL1       -0.0175
     12 C          -5.1242   -0.8859    0.8684 C.3     1  UNL1       -0.0175
     13 C          -2.0039    1.0039    0.0470 C.ar    1  UNL1        0.0677
     14 C          -0.9493    0.0893   -0.0330 C.ar    1  UNL1       -0.0133
     15 C           0.3912    0.5126    0.0318 C.ar    1  UNL1        0.0593
     16 C          -1.7444    2.3636    0.1797 C.ar    1  UNL1        0.1451
     17 C           0.6287    1.9014    0.1370 C.ar    1  UNL1        0.0490
     18 C          -0.4294    2.8170    0.2194 C.ar    1  UNL1       -0.0118
     19 C           2.0185    2.4211    0.1364 C.ar    1  UNL1        0.1983
     20 C           2.7782    0.1358   -0.1011 C.ar    1  UNL1        0.0229
     21 C           1.3606   -1.8317   -0.0288 C.ar    1  UNL1        0.0468
     22 C           3.1036    1.4291   -0.0237 C.ar    1  UNL1        0.0611
     23 C           0.7766   -2.4614    1.0703 C.ar    1  UNL1       -0.0351
     24 C           1.8123   -2.5904   -1.1086 C.ar    1  UNL1       -0.0351
     25 C           4.5637    1.8176   -0.0791 C.2     1  UNL1        0.0768
     26 C           0.6446   -3.8499    1.0899 C.ar    1  UNL1       -0.0245
     27 C           1.6804   -3.9788   -1.0892 C.ar    1  UNL1       -0.0245
     28 C           1.0966   -4.6085    0.0100 C.ar    1  UNL1        0.1235
     29 H          -3.9778    0.4540   -2.0017 H       1  UNL1        0.0516
     30 H          -3.9603    2.0886   -1.3518 H       1  UNL1        0.0516
     31 H          -3.0660   -1.0189    1.4047 H       1  UNL1        0.0516
     32 H          -3.4090   -1.5487   -0.2546 H       1  UNL1        0.0516
     33 H          -5.9033    1.5998    0.1172 H       1  UNL1        0.0829
     34 H          -6.2968    1.1696   -1.5717 H       1  UNL1        0.0829
     35 H          -5.4159   -1.9126    1.1079 H       1  UNL1        0.0829
     36 H          -5.3826   -0.2304    1.7070 H       1  UNL1        0.0829
     37 H          -5.7985   -1.0981   -1.0873 H       1  UNL1        0.2015
     38 H          -6.9448   -0.5305   -0.0576 H       1  UNL1        0.2015
     39 H          -1.1660   -0.9652   -0.1770 H       1  UNL1        0.0658
     40 H          -0.2477    3.8848    0.3058 H       1  UNL1        0.0654
     41 H           3.5625   -0.6120   -0.1899 H       1  UNL1        0.0821
     42 H           0.4284   -1.8863    1.9245 H       1  UNL1        0.0639
     43 H           2.2625   -2.1148   -1.9762 H       1  UNL1        0.0639
     44 H           0.1920   -4.3407    1.9463 H       1  UNL1        0.0647
     45 H           2.0306   -4.5697   -1.9304 H       1  UNL1        0.0647
@<TRIPOS>BOND
     1     1    16    1
     2     2    28    1
     3     3    19    2
     4     4    25   ar
     5     5    25   ar
     6     6     9    1
     7     6    10    1
     8     6    13    1
     9     7    11    1
    10     7    12    1
    11     7    37    1
    12     7    38    1
    13     8    15   ar
    14     8    20   ar
    15     8    21    1
    16     9    11    1
    17     9    29    1
    18     9    30    1
    19    10    12    1
    20    10    31    1
    21    10    32    1
    22    11    33    1
    23    11    34    1
    24    12    35    1
    25    12    36    1
    26    13    14   ar
    27    13    16   ar
    28    14    15   ar
    29    14    39    1
    30    15    17   ar
    31    16    18   ar
    32    17    18   ar
    33    17    19   ar
    34    18    40    1
    35    19    22   ar
    36    20    22   ar
    37    20    41    1
    38    21    23   ar
    39    21    24   ar
    40    22    25    1
    41    23    26   ar
    42    23    42    1
    43    24    27   ar
    44    24    43    1
    45    26    28   ar
    46    26    44    1
    47    27    28   ar
    48    27    45    1
