@<TRIPOS>MOLECULE
656958
 81 83 0 0 0
SMALL
GASTEIGER

@<TRIPOS>ATOM
      1 S           3.8967   -0.6230    0.6892 S.3     1  UNL1       -0.1482
      2 O           0.2644    0.8949    0.3642 O.3     1  UNL1       -0.4602
      3 O          -3.5768   -3.4774   -0.5314 O.3     1  UNL1       -0.3907
      4 O          -4.1758    2.9275   -1.9509 O.2     1  UNL1       -0.2971
      5 O           1.0304   -1.0316    1.3697 O.2     1  UNL1       -0.2499
      6 N           7.6895    0.3074   -0.3964 N.3     1  UNL1       -0.3021
      7 C          -4.2653    0.1255    0.2365 C.3     1  UNL1       -0.0138
      8 C          -3.3860    0.9064   -0.7888 C.3     1  UNL1        0.0324
      9 C          -2.0522    1.4986   -0.2305 C.3     1  UNL1        0.0176
     10 C          -3.7400   -1.3169    0.6227 C.3     1  UNL1       -0.0107
     11 C          -2.3891    2.3783    1.0293 C.3     1  UNL1       -0.0344
     12 C          -4.4708    1.0011    1.5144 C.3     1  UNL1       -0.0461
     13 C          -5.6197    0.0276   -0.5197 C.3     1  UNL1       -0.0397
     14 C          -1.0416    0.3392    0.1345 C.3     1  UNL1        0.1102
     15 C          -3.1877    1.5932    2.0853 C.3     1  UNL1       -0.0493
     16 C          -4.4218    1.8796   -1.3683 C.2     1  UNL1        0.1376
     17 C          -3.1029   -2.1191   -0.5705 C.3     1  UNL1        0.0672
     18 C          -5.8302    1.3735   -1.2016 C.3     1  UNL1        0.0067
     19 C          -1.5313   -2.1490   -0.6341 C.3     1  UNL1        0.0152
     20 C          -0.8748   -0.7653   -0.9333 C.3     1  UNL1       -0.0039
     21 C          -1.3893    2.3946   -1.3165 C.3     1  UNL1       -0.0553
     22 C          -4.8328   -2.1487    1.3384 C.3     1  UNL1       -0.0595
     23 C          -1.1915    3.0499    1.7128 C.3     1  UNL1       -0.0618
     24 C          -1.0848   -3.0965   -1.7793 C.3     1  UNL1       -0.0536
     25 C          -0.9465   -2.7277    0.6371 C.2     1  UNL1       -0.0826
     26 C           1.2240   -0.0024    0.7379 C.2     1  UNL1        0.3173
     27 C           0.1327   -3.5167    0.6730 C.2     1  UNL1       -0.1020
     28 C           2.5542    0.5012    0.2371 C.3     1  UNL1        0.0911
     29 C           5.2715    0.2855   -0.0558 C.3     1  UNL1        0.0070
     30 C           6.5877   -0.4348    0.2089 C.3     1  UNL1        0.0079
     31 C           8.9578   -0.3902   -0.1819 C.3     1  UNL1       -0.0039
     32 C           7.7561    1.6637    0.1487 C.3     1  UNL1       -0.0039
     33 C           8.8835   -1.7950   -0.7486 C.3     1  UNL1       -0.0524
     34 C           8.8623    2.4466   -0.5322 C.3     1  UNL1       -0.0524
     35 H          -3.1698    0.2849   -1.6615 H       1  UNL1        0.0389
     36 H          -2.9868   -1.1740    1.3959 H       1  UNL1        0.0329
     37 H          -3.0348    3.2008    0.6889 H       1  UNL1        0.0305
     38 H          -4.9817    0.4411    2.3030 H       1  UNL1        0.0271
     39 H          -5.1403    1.8434    1.3009 H       1  UNL1        0.0271
     40 H          -5.5825   -0.7573   -1.2850 H       1  UNL1        0.0275
     41 H          -6.4607   -0.2030    0.1433 H       1  UNL1        0.0275
     42 H          -1.3310   -0.0970    1.0879 H       1  UNL1        0.0740
     43 H          -2.5785    0.8080    2.5443 H       1  UNL1        0.0268
     44 H          -3.4608    2.2692    2.9062 H       1  UNL1        0.0268
     45 H          -3.4874   -1.7300   -1.5179 H       1  UNL1        0.0604
     46 H          -6.3184    1.2572   -2.1722 H       1  UNL1        0.0342
     47 H          -6.3959    2.0668   -0.5737 H       1  UNL1        0.0342
     48 H          -1.2566   -0.4120   -1.8983 H       1  UNL1        0.0310
     49 H           0.1849   -0.9349   -1.1640 H       1  UNL1        0.0310
     50 H          -1.9108    3.3490   -1.4334 H       1  UNL1        0.0237
     51 H          -1.3772    1.8953   -2.2913 H       1  UNL1        0.0237
     52 H          -0.3538    2.6557   -1.0777 H       1  UNL1        0.0237
     53 H          -5.6333   -2.4455    0.6531 H       1  UNL1        0.0233
     54 H          -5.2891   -1.6090    2.1712 H       1  UNL1        0.0233
     55 H          -4.4003   -3.0600    1.7675 H       1  UNL1        0.0233
     56 H          -1.5422    3.7645    2.4665 H       1  UNL1        0.0233
     57 H          -0.5576    2.3263    2.2337 H       1  UNL1        0.0233
     58 H          -0.5772    3.6110    1.0037 H       1  UNL1        0.0233
     59 H          -1.6181   -2.8349   -2.7027 H       1  UNL1        0.0239
     60 H          -1.3049   -4.1522   -1.5790 H       1  UNL1        0.0239
     61 H          -0.0194   -3.0092   -2.0244 H       1  UNL1        0.0239
     62 H          -1.4072   -2.4961    1.5921 H       1  UNL1        0.0573
     63 H          -3.5216   -3.8386   -1.4321 H       1  UNL1        0.2098
     64 H           0.7175   -3.8137   -0.1868 H       1  UNL1        0.0532
     65 H           0.4825   -3.8881    1.6322 H       1  UNL1        0.0532
     66 H           2.5078    0.5813   -0.8530 H       1  UNL1        0.0490
     67 H           2.7433    1.4821    0.6832 H       1  UNL1        0.0490
     68 H           5.2302    1.2702    0.4125 H       1  UNL1        0.0389
     69 H           5.0944    0.3915   -1.1316 H       1  UNL1        0.0389
     70 H           6.4903   -1.4300   -0.2378 H       1  UNL1        0.0434
     71 H           6.7475   -0.5640    1.2881 H       1  UNL1        0.0434
     72 H           9.7723    0.1046   -0.7204 H       1  UNL1        0.0424
     73 H           9.2339   -0.4307    0.8792 H       1  UNL1        0.0424
     74 H           6.8506    2.2339   -0.0724 H       1  UNL1        0.0424
     75 H           7.9020    1.6695    1.2359 H       1  UNL1        0.0424
     76 H           9.8947   -2.2127   -0.8180 H       1  UNL1        0.0242
     77 H           8.4602   -1.8102   -1.7591 H       1  UNL1        0.0242
     78 H           8.3156   -2.4783   -0.1094 H       1  UNL1        0.0242
     79 H           8.8247    2.3463   -1.6226 H       1  UNL1        0.0242
     80 H           9.8583    2.1596   -0.1810 H       1  UNL1        0.0242
     81 H           8.7514    3.5127   -0.3020 H       1  UNL1        0.0242
@<TRIPOS>BOND
     1     1    28    1
     2     1    29    1
     3     2    14    1
     4     2    26    1
     5     3    17    1
     6     3    63    1
     7     4    16    2
     8     5    26    2
     9     6    30    1
    10     6    31    1
    11     6    32    1
    12     7     8    1
    13     7    10    1
    14     7    12    1
    15     7    13    1
    16     8     9    1
    17     8    16    1
    18     8    35    1
    19     9    11    1
    20     9    14    1
    21     9    21    1
    22    10    17    1
    23    10    22    1
    24    10    36    1
    25    11    15    1
    26    11    23    1
    27    11    37    1
    28    12    15    1
    29    12    38    1
    30    12    39    1
    31    13    18    1
    32    13    40    1
    33    13    41    1
    34    14    20    1
    35    14    42    1
    36    15    43    1
    37    15    44    1
    38    16    18    1
    39    17    19    1
    40    17    45    1
    41    18    46    1
    42    18    47    1
    43    19    20    1
    44    19    24    1
    45    19    25    1
    46    20    48    1
    47    20    49    1
    48    21    50    1
    49    21    51    1
    50    21    52    1
    51    22    53    1
    52    22    54    1
    53    22    55    1
    54    23    56    1
    55    23    57    1
    56    23    58    1
    57    24    59    1
    58    24    60    1
    59    24    61    1
    60    25    27    2
    61    25    62    1
    62    26    28    1
    63    27    64    1
    64    27    65    1
    65    28    66    1
    66    28    67    1
    67    29    30    1
    68    29    68    1
    69    29    69    1
    70    30    70    1
    71    30    71    1
    72    31    33    1
    73    31    72    1
    74    31    73    1
    75    32    34    1
    76    32    74    1
    77    32    75    1
    78    33    76    1
    79    33    77    1
    80    33    78    1
    81    34    79    1
    82    34    80    1
    83    34    81    1
