@<TRIPOS>MOLECULE
5284529
 44 46 0 0 0
SMALL
GASTEIGER

@<TRIPOS>ATOM
      1 S          -0.3163   -1.2046   -0.8508 S.3     1  UNL1       -0.1277
      2 O          -1.9646    2.8723    0.7152 O.2     1  UNL1       -0.2731
      3 O          -4.0983   -2.2318    0.1220 O.2     1  UNL1       -0.4964
      4 O           2.4436    1.9312   -1.6684 O.2     1  UNL1       -0.2737
      5 O          -4.3576    1.7480    0.5625 O.3     1  UNL1       -0.4762
      6 OXT        -4.7834   -0.1763    1.7226 O.2     1  UNL1       -0.2436
      7 N          -2.0480    0.7345   -0.2724 N.am    1  UNL1       -0.2463
      8 N           0.9057    1.4826    0.0084 N.am    1  UNL1       -0.3002
      9 N           4.4126    2.2679    0.1801 N.3     1  UNL1       -0.3166
     10 C          -1.0552    0.3918   -1.2763 C.3     1  UNL1        0.1044
     11 CA         -0.2940    1.6526   -0.8104 C.3     1  UNL1        0.1284
     12 C          -1.5741    1.9637    0.0204 C.2     1  UNL1        0.2440
     13 CA         -3.0596   -0.0912    0.0880 C.2     1  UNL1        0.1606
     14 C          -1.9076   -2.1031   -0.9464 C.3     1  UNL1        0.0551
     15 C          -3.0481   -1.4014   -0.2333 C.2     1  UNL1        0.1354
     16 C           2.1958    1.6390   -0.4989 C.2     1  UNL1        0.2347
     17 CA          3.2858    1.4115    0.5396 C.3     1  UNL1        0.1042
     18 C           3.6489   -0.0362    0.5380 C.2     1  UNL1       -0.0441
     19 C          -4.1595    0.4557    0.8922 C.2     1  UNL1        0.3547
     20 C           4.1480   -0.5938   -0.7737 C.3     1  UNL1       -0.0116
     21 C           3.5379   -0.7990    1.6402 C.2     1  UNL1       -0.0788
     22 C           3.8914   -2.2578    1.6817 C.3     1  UNL1       -0.0162
     23 C           4.5014   -2.0521   -0.7295 C.2     1  UNL1       -0.0836
     24 C           4.3861   -2.8014    0.3753 C.2     1  UNL1       -0.0839
     25 C          -4.6908   -2.8021   -1.0263 C.3     1  UNL1        0.0785
     26 H          -1.4431    0.4613   -2.2997 H       1  UNL1        0.0644
     27 HA         -0.1445    2.3884   -1.6104 H       1  UNL1        0.0622
     28 H           0.8112    1.2246    0.9879 H       1  UNL1        0.1496
     29 H          -1.7402   -3.0891   -0.5006 H       1  UNL1        0.0457
     30 H          -2.1538   -2.2436   -2.0041 H       1  UNL1        0.0457
     31 HA          2.9172    1.7364    1.5196 H       1  UNL1        0.0602
     32 H           5.0445   -0.0540   -1.0978 H       1  UNL1        0.0353
     33 H           3.3860   -0.4765   -1.5515 H       1  UNL1        0.0353
     34 H           3.1737   -0.3625    2.5667 H       1  UNL1        0.0575
     35 H1          4.7400    2.0699   -0.7634 H       1  UNL1        0.1192
     36 H2          5.1955    2.0987    0.8098 H       1  UNL1        0.1192
     37 H           3.0064   -2.8265    1.9889 H       1  UNL1        0.0350
     38 H           4.6631   -2.4123    2.4442 H       1  UNL1        0.0350
     39 H           4.8667   -2.5093   -1.6448 H       1  UNL1        0.0572
     40 H           4.6595   -3.8517    0.3368 H       1  UNL1        0.0572
     41 H          -5.6478   -3.2418   -0.7280 H       1  UNL1        0.0660
     42 H          -4.0741   -3.6099   -1.4338 H       1  UNL1        0.0660
     43 H          -4.8978   -2.0516   -1.7983 H       1  UNL1        0.0660
     44 H          -5.0865    2.1533    1.0791 H       1  UNL1        0.2955
@<TRIPOS>BOND
     1     1    10    1
     2     1    14    1
     3     2    12    2
     4     3    15    1
     5     3    25    1
     6     4    16    2
     7     5    19    1
     8     5    44    1
     9     6    19    2
    10     7    10    1
    11     7    12   am
    12     7    13    1
    13     8    11    1
    14     8    16   am
    15     8    28    1
    16     9    17    1
    17     9    35    1
    18     9    36    1
    19    10    11    1
    20    10    26    1
    21    11    12    1
    22    11    27    1
    23    13    15    2
    24    13    19    1
    25    14    15    1
    26    14    29    1
    27    14    30    1
    28    16    17    1
    29    17    18    1
    30    17    31    1
    31    18    20    1
    32    18    21    2
    33    20    23    1
    34    20    32    1
    35    20    33    1
    36    21    22    1
    37    21    34    1
    38    22    24    1
    39    22    37    1
    40    22    38    1
    41    23    24    2
    42    23    39    1
    43    24    40    1
    44    25    41    1
    45    25    42    1
    46    25    43    1
