@<TRIPOS>MOLECULE
7061800
 48 51 0 0 0
SMALL
GASTEIGER

@<TRIPOS>ATOM
      1 F           0.5883    2.1334   -0.7935 F       1  UNL1       -0.2013
      2 F           2.1540   -2.2528   -0.0206 F       1  UNL1       -0.2004
      3 F          -0.3667   -3.1302    0.3663 F       1  UNL1       -0.2016
      4 O          -2.8566   -2.6046    0.4588 O.2     1  UNL1       -0.2864
      5 O          -5.3923   -2.0211    0.5447 O.co2   1  UNL1       -0.5445
      6 O          -5.9898    0.1513    0.1486 O.co2   1  UNL1       -0.5445
      7 N           5.1830   -0.0546    0.5863 N.4     1  UNL1        0.2332
      8 N          -2.1296    1.3132   -0.4060 N.ar    1  UNL1       -0.3404
      9 N           2.6756    0.3993   -0.6045 N.pl3   1  UNL1       -0.3146
     10 C          -1.9769    2.7519   -0.7139 C.3     1  UNL1        0.0348
     11 C          -2.5594    3.7916    0.1845 C.3     1  UNL1       -0.0302
     12 C          -1.0715    3.6163    0.0991 C.3     1  UNL1       -0.0302
     13 C           4.1545    0.7825    1.3035 C.3     1  UNL1       -0.0092
     14 C           4.5859   -1.1035   -0.3178 C.3     1  UNL1       -0.0092
     15 C           3.2464    1.4421    0.2577 C.3     1  UNL1        0.0552
     16 C           3.6738   -0.3982   -1.3244 C.3     1  UNL1        0.0552
     17 C          -1.0175    0.4277   -0.3139 C.ar    1  UNL1        0.0935
     18 C           1.3722   -0.0464   -0.4097 C.ar    1  UNL1        0.1063
     19 C           4.8861    1.8080    2.1564 C.3     1  UNL1       -0.0202
     20 C           5.7226   -1.8507   -0.9980 C.3     1  UNL1       -0.0202
     21 C           0.3067    0.8530   -0.5083 C.ar    1  UNL1        0.1713
     22 C          -3.4063    0.8268   -0.2035 C.ar    1  UNL1        0.0180
     23 C          -1.2360   -0.9355   -0.0162 C.ar    1  UNL1        0.0867
     24 C           1.1355   -1.3862   -0.1154 C.ar    1  UNL1        0.1829
     25 C          -0.1677   -1.8354    0.0823 C.ar    1  UNL1        0.1732
     26 C          -3.7195   -0.4408    0.0823 C.ar    1  UNL1        0.0608
     27 C          -2.6212   -1.4317    0.1977 C.ar    1  UNL1        0.2011
     28 C          -5.1736   -0.8053    0.2773 C.2     1  UNL1        0.0767
     29 H          -2.0149    2.9432   -1.7817 H       1  UNL1        0.0528
     30 H          -2.9906    4.6725   -0.2752 H       1  UNL1        0.0286
     31 H          -3.0423    3.4879    1.1053 H       1  UNL1        0.0286
     32 H          -0.5929    3.2283    0.9907 H       1  UNL1        0.0286
     33 H          -0.5094    4.3901   -0.4101 H       1  UNL1        0.0286
     34 H           3.5879    0.0947    1.9422 H       1  UNL1        0.0863
     35 H           4.0789   -1.7875    0.3607 H       1  UNL1        0.0863
     36 H           5.8002    0.5599    0.0363 H       1  UNL1        0.2020
     37 H           5.7896   -0.5127    1.2810 H       1  UNL1        0.2020
     38 H           2.4700    2.0291    0.7623 H       1  UNL1        0.0519
     39 H           3.8184    2.1440   -0.3627 H       1  UNL1        0.0519
     40 H           4.2624    0.2723   -1.9646 H       1  UNL1        0.0519
     41 H           3.2003   -1.1210   -2.0001 H       1  UNL1        0.0519
     42 H           5.5037    2.4740    1.5440 H       1  UNL1        0.0285
     43 H           4.1721    2.4256    2.7111 H       1  UNL1        0.0285
     44 H           5.5400    1.3166    2.8848 H       1  UNL1        0.0285
     45 H           6.3295   -1.1824   -1.6187 H       1  UNL1        0.0285
     46 H           6.3846   -2.3156   -0.2593 H       1  UNL1        0.0285
     47 H           5.3290   -2.6448   -1.6411 H       1  UNL1        0.0285
     48 H          -4.1612    1.5980   -0.3126 H       1  UNL1        0.0817
@<TRIPOS>BOND
     1     1    21    1
     2     2    24    1
     3     3    25    1
     4     4    27    2
     5     5    28   ar
     6     6    28   ar
     7     7    13    1
     8     7    14    1
     9     7    36    1
    10     7    37    1
    11     8    10    1
    12     8    17   ar
    13     8    22   ar
    14     9    15    1
    15     9    16    1
    16     9    18    1
    17    10    11    1
    18    10    12    1
    19    10    29    1
    20    11    12    1
    21    11    30    1
    22    11    31    1
    23    12    32    1
    24    12    33    1
    25    13    15    1
    26    13    19    1
    27    13    34    1
    28    14    16    1
    29    14    20    1
    30    14    35    1
    31    15    38    1
    32    15    39    1
    33    16    40    1
    34    16    41    1
    35    17    21   ar
    36    17    23   ar
    37    18    21   ar
    38    18    24   ar
    39    19    42    1
    40    19    43    1
    41    19    44    1
    42    20    45    1
    43    20    46    1
    44    20    47    1
    45    22    26   ar
    46    22    48    1
    47    23    25   ar
    48    23    27   ar
    49    24    25   ar
    50    26    27   ar
    51    26    28    1
