@<TRIPOS>MOLECULE
52918384
 68 71 0 0 0
SMALL
GASTEIGER

@<TRIPOS>ATOM
      1 F          -1.6583   -1.5918   -0.5608 F       1  UNL1       -0.1982
      2 O          -7.0348   -1.8816    1.7510 O.3     1  UNL1       -0.3769
      3 O           2.3158   -1.0752    1.3986 O.2     1  UNL1       -0.2739
      4 O           5.4383   -3.1332    1.4667 O.3     1  UNL1       -0.2927
      5 O           3.9061   -4.1162   -1.6216 O.2     1  UNL1       -0.2772
      6 N          -6.1943    0.2505    0.0621 N.3     1  UNL1       -0.2921
      7 N          -3.4090    0.5174   -0.5042 N.pl3   1  UNL1       -0.3100
      8 N           4.9505   -3.0554    0.1540 N.am    1  UNL1       -0.1857
      9 N           2.3534   -0.9229   -0.9150 N.am    1  UNL1       -0.2350
     10 N          -1.6297    2.0183   -0.9197 N.ar    1  UNL1       -0.2146
     11 N           1.0220   -1.1669   -1.0093 N.pl3   1  UNL1       -0.2460
     12 N           0.6116    1.1709   -1.1763 N.ar    1  UNL1       -0.2133
     13 C           4.1051    1.8862    0.4232 C.3     1  UNL1       -0.0403
     14 C           4.5976    2.0208    1.8606 C.3     1  UNL1       -0.0502
     15 C           4.4340    3.2555   -0.1630 C.3     1  UNL1       -0.0502
     16 C           4.0792    4.2293    0.9559 C.3     1  UNL1       -0.0528
     17 C           4.1961    3.4376    2.2595 C.3     1  UNL1       -0.0528
     18 C           4.7586    0.7402   -0.3290 C.3     1  UNL1       -0.0375
     19 C          -5.2348   -0.7490    0.5683 C.3     1  UNL1        0.0496
     20 C           4.4301   -0.6299    0.2899 C.3     1  UNL1        0.0553
     21 C          -3.8401   -0.1282    0.7405 C.3     1  UNL1        0.0314
     22 C          -5.7465    0.7763   -1.2325 C.3     1  UNL1        0.0152
     23 C          -4.3755    1.4428   -1.1074 C.3     1  UNL1        0.0264
     24 C          -5.7357   -1.3076    1.9055 C.3     1  UNL1        0.0647
     25 C          -7.5339   -0.3428   -0.0528 C.3     1  UNL1        0.0228
     26 C          -7.9702   -0.9037    1.2965 C.3     1  UNL1        0.0605
     27 C           5.1331   -1.7694   -0.4641 C.3     1  UNL1        0.0525
     28 C           2.9231   -0.8951    0.3450 C.2     1  UNL1        0.2337
     29 C          -2.0482    0.7496   -0.7313 C.ar    1  UNL1        0.1624
     30 C          -1.2087   -0.3454   -0.7509 C.ar    1  UNL1        0.2039
     31 C           0.1243   -0.0719   -0.9803 C.ar    1  UNL1        0.1759
     32 C          -0.3071    2.1546   -1.1336 C.ar    1  UNL1        0.1304
     33 C           4.3551   -4.1073   -0.4811 C.2     1  UNL1        0.2250
     34 C           0.1931    3.5434   -1.3445 C.3     1  UNL1       -0.0045
     35 H           3.0139    1.7692    0.4262 H       1  UNL1        0.0301
     36 H           5.6884    1.9173    1.9140 H       1  UNL1        0.0268
     37 H           4.1546    1.2801    2.5333 H       1  UNL1        0.0268
     38 H           3.8728    3.4626   -1.0795 H       1  UNL1        0.0268
     39 H           5.5027    3.3349   -0.3973 H       1  UNL1        0.0268
     40 H           3.0517    4.5913    0.8336 H       1  UNL1        0.0265
     41 H           4.9291    3.8813    2.9409 H       1  UNL1        0.0265
     42 H           3.2296    3.4302    2.7765 H       1  UNL1        0.0265
     43 H           4.7380    5.1034    0.9484 H       1  UNL1        0.0265
     44 H           5.8482    0.8742   -0.3380 H       1  UNL1        0.0276
     45 H           4.4397    0.7726   -1.3782 H       1  UNL1        0.0276
     46 H          -5.1714   -1.5774   -0.1526 H       1  UNL1        0.0501
     47 H           4.7865   -0.6363    1.3276 H       1  UNL1        0.0411
     48 H          -3.1453   -0.9132    1.0584 H       1  UNL1        0.0480
     49 H          -3.8510    0.6241    1.5408 H       1  UNL1        0.0480
     50 H          -6.4598    1.5236   -1.6006 H       1  UNL1        0.0442
     51 H          -5.6977   -0.0258   -1.9813 H       1  UNL1        0.0442
     52 H          -4.0489    1.7426   -2.1113 H       1  UNL1        0.0477
     53 H          -4.4489    2.3507   -0.4950 H       1  UNL1        0.0477
     54 H          -5.0678   -2.1013    2.2571 H       1  UNL1        0.0576
     55 H          -5.7707   -0.5375    2.6865 H       1  UNL1        0.0576
     56 H          -7.5310   -1.1485   -0.7985 H       1  UNL1        0.0449
     57 H          -8.2578    0.4147   -0.3740 H       1  UNL1        0.0449
     58 H          -8.0715   -0.1138    2.0507 H       1  UNL1        0.0572
     59 H          -8.9436   -1.3947    1.1987 H       1  UNL1        0.0572
     60 H           4.8123   -1.8099   -1.5108 H       1  UNL1        0.0496
     61 H           6.2138   -1.5806   -0.4757 H       1  UNL1        0.0496
     62 H           2.8444   -0.7789   -1.7899 H       1  UNL1        0.1728
     63 H           0.7208   -2.0637   -1.3677 H       1  UNL1        0.1716
     64 H           4.3115   -5.0010    0.1627 H       1  UNL1        0.1274
     65 H           4.6217   -2.9700    1.9688 H       1  UNL1        0.2416
     66 H          -0.5879    4.1790   -1.7732 H       1  UNL1        0.0308
     67 H           1.0478    3.5475   -2.0282 H       1  UNL1        0.0308
     68 H           0.5081    3.9709   -0.3880 H       1  UNL1        0.0308
@<TRIPOS>BOND
     1     1    30    1
     2     2    24    1
     3     2    26    1
     4     3    28    2
     5     4     8    1
     6     4    65    1
     7     5    33    2
     8     6    19    1
     9     6    22    1
    10     6    25    1
    11     7    21    1
    12     7    23    1
    13     7    29    1
    14     8    27    1
    15     8    33   am
    16     9    11    1
    17     9    28   am
    18     9    62    1
    19    10    29   ar
    20    10    32   ar
    21    11    31    1
    22    11    63    1
    23    12    31   ar
    24    12    32   ar
    25    13    14    1
    26    13    15    1
    27    13    18    1
    28    13    35    1
    29    14    17    1
    30    14    36    1
    31    14    37    1
    32    15    16    1
    33    15    38    1
    34    15    39    1
    35    16    17    1
    36    16    40    1
    37    16    43    1
    38    17    41    1
    39    17    42    1
    40    18    20    1
    41    18    44    1
    42    18    45    1
    43    19    21    1
    44    19    24    1
    45    19    46    1
    46    20    27    1
    47    20    28    1
    48    20    47    1
    49    21    48    1
    50    21    49    1
    51    22    23    1
    52    22    50    1
    53    22    51    1
    54    23    52    1
    55    23    53    1
    56    24    54    1
    57    24    55    1
    58    25    26    1
    59    25    56    1
    60    25    57    1
    61    26    58    1
    62    26    59    1
    63    27    60    1
    64    27    61    1
    65    29    30   ar
    66    30    31   ar
    67    32    34    1
    68    33    64    1
    69    34    66    1
    70    34    67    1
    71    34    68    1
