@<TRIPOS>MOLECULE
56928061
 73 76 0 0 0
SMALL
GASTEIGER

@<TRIPOS>ATOM
      1 O           1.1856   -0.5391    0.1081 O.3     1  UNL1       -0.3133
      2 O           2.4555   -2.0804   -1.0763 O.3     1  UNL1       -0.3157
      3 O           3.3235    0.0691   -0.7569 O.3     1  UNL1       -0.3168
      4 O          -1.5290   -1.8035   -0.5921 O.3     1  UNL1       -0.3405
      5 O          -1.3371    0.5283   -0.3887 O.3     1  UNL1       -0.3402
      6 O           0.5542   -3.5488    0.1759 O.3     1  UNL1       -0.3865
      7 O           2.4186   -2.3872    1.8243 O.3     1  UNL1       -0.3812
      8 O           4.2564   -0.7025    3.1990 O.3     1  UNL1       -0.3863
      9 O           5.5583    0.3941    1.0339 O.3     1  UNL1       -0.3865
     10 O          -2.9574   -0.7472    1.5713 O.3     1  UNL1       -0.3876
     11 O          -2.8776    1.9360   -2.4025 O.3     1  UNL1       -0.3876
     12 O          -3.3376   -4.0026   -1.4330 O.3     1  UNL1       -0.3924
     13 O           5.1275    4.5113   -0.8277 O.3     1  UNL1       -0.3934
     14 N          -5.0294    0.9367    2.7114 N.3     1  UNL1       -0.3138
     15 N          -4.9142    3.6812   -1.3272 N.3     1  UNL1       -0.3250
     16 N           3.4785    2.5552   -1.9959 N.3     1  UNL1       -0.3233
     17 C           0.5700   -0.6905   -1.1754 C.3     1  UNL1        0.1436
     18 C           1.1342   -2.0209   -1.6392 C.3     1  UNL1        0.1236
     19 C           2.5375   -0.9756   -0.1474 C.3     1  UNL1        0.3168
     20 C          -0.9516   -0.6205   -1.1367 C.3     1  UNL1        0.1889
     21 C           0.3116   -3.2399   -1.1942 C.3     1  UNL1        0.1124
     22 C           3.2314   -1.4355    1.1447 C.3     1  UNL1        0.1648
     23 C          -1.1854   -2.9677   -1.3575 C.3     1  UNL1        0.1130
     24 C          -2.7598    0.6772   -0.3551 C.3     1  UNL1        0.1162
     25 C           3.4950   -0.2538    2.0803 C.3     1  UNL1        0.1169
     26 C           3.4951    1.2300    0.0665 C.3     1  UNL1        0.1098
     27 C           4.2450    0.8606    1.3503 C.3     1  UNL1        0.1115
     28 C          -3.1989    0.5855    1.1103 C.3     1  UNL1        0.0992
     29 C          -3.1358    2.0172   -0.9982 C.3     1  UNL1        0.0990
     30 C          -4.6846    0.9252    1.2876 C.3     1  UNL1        0.0374
     31 C          -4.6221    2.3446   -0.8019 C.3     1  UNL1        0.0351
     32 C          -5.0171    2.2892    0.6766 C.3     1  UNL1       -0.0173
     33 CA          4.2276    2.2718   -0.7711 C.3     1  UNL1        0.0575
     34 C          -2.0505   -4.1175   -0.8534 C.3     1  UNL1        0.0730
     35 C           4.4407    3.5785   -0.0025 C.3     1  UNL1        0.0619
     36 C          -6.4579    0.7415    2.8931 C.3     1  UNL1       -0.0155
     37 H           0.9413    0.1372   -1.7948 H       1  UNL1        0.0676
     38 H           1.2075   -2.0286   -2.7330 H       1  UNL1        0.0652
     39 H          -1.3184   -0.4999   -2.1653 H       1  UNL1        0.0938
     40 H           0.6193   -4.1190   -1.7703 H       1  UNL1        0.0647
     41 H           4.1753   -1.9438    0.9125 H       1  UNL1        0.0702
     42 H          -1.4218   -2.7773   -2.4131 H       1  UNL1        0.0647
     43 H          -3.2464   -0.1264   -0.9266 H       1  UNL1        0.0650
     44 H           2.5428    0.1226    2.4744 H       1  UNL1        0.0649
     45 H           2.5016    1.6199    0.3283 H       1  UNL1        0.0641
     46 H           4.3606    1.7130    2.0258 H       1  UNL1        0.0647
     47 H          -2.5730    1.2467    1.7231 H       1  UNL1        0.0636
     48 H          -2.4967    2.8152   -0.6004 H       1  UNL1        0.0636
     49 H          -5.2637    0.1417    0.7784 H       1  UNL1        0.0487
     50 H          -5.2325    1.6285   -1.3674 H       1  UNL1        0.0485
     51 H          -4.4934    3.0815    1.2304 H       1  UNL1        0.0297
     52 H          -6.0895    2.5029    0.7612 H       1  UNL1        0.0297
     53 HA          5.2006    1.8825   -1.0965 H       1  UNL1        0.0507
     54 H          -2.1617   -4.0953    0.2356 H       1  UNL1        0.0584
     55 H          -1.6363   -5.0831   -1.1601 H       1  UNL1        0.0584
     56 H           0.2417   -2.7976    0.7091 H       1  UNL1        0.2100
     57 H           2.3364   -3.1622    1.2428 H       1  UNL1        0.2102
     58 H          -4.5392    0.1752    3.1813 H       1  UNL1        0.1220
     59 H           4.4155    0.0670    3.7718 H       1  UNL1        0.2100
     60 H1          3.4872    4.0224    0.3051 H       1  UNL1        0.0573
     61 H2          5.0596    3.4254    0.8854 H       1  UNL1        0.0573
     62 H          -5.9132    3.8687   -1.2521 H       1  UNL1        0.1185
     63 H          -4.6883    3.7134   -2.3206 H       1  UNL1        0.1185
     64 H           5.4894   -0.2375    0.2983 H       1  UNL1        0.2100
     65 H          -3.4962   -1.3526    1.0339 H       1  UNL1        0.2100
     66 H          -3.4315    1.2267   -2.7707 H       1  UNL1        0.2100
     67 H1          4.0036    3.2075   -2.5769 H       1  UNL1        0.1186
     68 H2          3.3756    1.6997   -2.5403 H       1  UNL1        0.1186
     69 H          -6.8019   -0.2009    2.4535 H       1  UNL1        0.0388
     70 H          -6.6774    0.6989    3.9651 H       1  UNL1        0.0388
     71 H          -7.0495    1.5658    2.4855 H       1  UNL1        0.0388
     72 H          -3.8695   -4.7459   -1.1012 H       1  UNL1        0.2095
     73 H           5.2402    5.3247   -0.3068 H       1  UNL1        0.2095
@<TRIPOS>BOND
     1     1    17    1
     2     1    19    1
     3     2    18    1
     4     2    19    1
     5     3    19    1
     6     3    26    1
     7     4    20    1
     8     4    23    1
     9     5    20    1
    10     5    24    1
    11     6    21    1
    12     6    56    1
    13     7    22    1
    14     7    57    1
    15     8    25    1
    16     8    59    1
    17     9    27    1
    18     9    64    1
    19    10    28    1
    20    10    65    1
    21    11    29    1
    22    11    66    1
    23    12    34    1
    24    12    72    1
    25    13    35    1
    26    13    73    1
    27    14    30    1
    28    14    36    1
    29    14    58    1
    30    15    31    1
    31    15    62    1
    32    15    63    1
    33    16    33    1
    34    16    67    1
    35    16    68    1
    36    17    18    1
    37    17    20    1
    38    17    37    1
    39    18    21    1
    40    18    38    1
    41    19    22    1
    42    20    39    1
    43    21    23    1
    44    21    40    1
    45    22    25    1
    46    22    41    1
    47    23    34    1
    48    23    42    1
    49    24    28    1
    50    24    29    1
    51    24    43    1
    52    25    27    1
    53    25    44    1
    54    26    27    1
    55    26    33    1
    56    26    45    1
    57    27    46    1
    58    28    30    1
    59    28    47    1
    60    29    31    1
    61    29    48    1
    62    30    32    1
    63    30    49    1
    64    31    32    1
    65    31    50    1
    66    32    51    1
    67    32    52    1
    68    33    35    1
    69    33    53    1
    70    34    54    1
    71    34    55    1
    72    35    60    1
    73    35    61    1
    74    36    69    1
    75    36    70    1
    76    36    71    1
