@<TRIPOS>MOLECULE
8359
 17 18 0 0 0
SMALL
GASTEIGER

@<TRIPOS>ATOM
      1 O          -1.9652   -0.6979    0.0000 O.2     1  UNL1       -0.3728
      2 O          -0.7249   -2.5848    0.0006 O.2     1  UNL1       -0.2443
      3 O          -3.1803    1.2035    0.0001 O.2     1  UNL1       -0.2228
      4 N          -0.9079    1.4102   -0.0001 N.ar    1  UNL1       -0.2906
      5 C           0.3522    0.8253    0.0000 C.ar    1  UNL1        0.0588
      6 C           0.4504   -0.5554   -0.0002 C.ar    1  UNL1        0.0829
      7 C           1.5002    1.6196    0.0003 C.ar    1  UNL1       -0.0374
      8 C           1.7080   -1.1663   -0.0006 C.ar    1  UNL1       -0.0458
      9 C          -0.7782   -1.3606    0.0001 C.ar    1  UNL1        0.3497
     10 C           2.7562    1.0136    0.0003 C.ar    1  UNL1       -0.0598
     11 C           2.8599   -0.3777   -0.0002 C.ar    1  UNL1       -0.0609
     12 C          -2.0704    0.6703   -0.0004 C.ar    1  UNL1        0.4208
     13 H           1.4288    2.7039    0.0006 H       1  UNL1        0.0638
     14 H          -0.9727    2.4240    0.0001 H       1  UNL1        0.1720
     15 H           1.8108   -2.2478   -0.0009 H       1  UNL1        0.0626
     16 H           3.6540    1.6248    0.0006 H       1  UNL1        0.0618
     17 H           3.8389   -0.8481   -0.0003 H       1  UNL1        0.0618
@<TRIPOS>BOND
     1     1     9   ar
     2     1    12   ar
     3     2     9    2
     4     3    12    2
     5     4     5   ar
     6     4    12   ar
     7     4    14    1
     8     5     6   ar
     9     5     7   ar
    10     6     8   ar
    11     6     9   ar
    12     7    10   ar
    13     7    13    1
    14     8    11   ar
    15     8    15    1
    16    10    11   ar
    17    10    16    1
    18    11    17    1
