@<TRIPOS>MOLECULE
6328657
 51 54 0 0 0
SMALL
GASTEIGER

@<TRIPOS>ATOM
      1 S           0.3956    1.3385   -2.2249 S.3     1  UNL1       -0.1311
      2 S          -3.8555   -0.0810   -0.4943 S.3     1  UNL1       -0.0755
      3 S           2.8171   -3.6997    1.4062 S.2     1  UNL1       -0.0604
      4 O           1.4337    2.1627    2.2311 O.2     1  UNL1       -0.2731
      5 O          -1.5730    3.1750    2.3223 O.3     1  UNL1       -0.4763
      6 OXT        -2.2782    1.0032    2.1951 O.2     1  UNL1       -0.2437
      7 O           4.3790    1.2665    1.3450 O.2     1  UNL1       -0.2683
      8 O           5.9489    0.8458   -1.3028 O.2     1  UNL1       -0.3964
      9 O          -6.2146    1.0428   -0.6677 O.2     1  UNL1       -0.2764
     10 O          -7.6617   -1.3251   -0.3814 O.2     1  UNL1       -0.4591
     11 N           0.1528    2.2590    0.2536 N.am    1  UNL1       -0.2490
     12 N           2.9217    1.1650   -0.4924 N.am    1  UNL1       -0.2963
     13 N           5.6119   -0.4749   -0.9752 N.2     1  UNL1       -0.0779
     14 N           4.7394   -2.9930   -0.1712 N.ar    1  UNL1       -0.2233
     15 N           4.4827   -5.3254    0.1199 N.pl3   1  UNL1       -0.3375
     16 C           0.8214    2.5893   -0.9918 C.3     1  UNL1        0.1042
     17 CA          2.1454    2.3756   -0.2260 C.3     1  UNL1        0.1286
     18 C           1.2498    2.2734    1.0415 C.2     1  UNL1        0.2440
     19 CA         -1.1835    2.0417    0.3583 C.2     1  UNL1        0.1228
     20 C          -1.9531    1.8283   -0.7354 C.2     1  UNL1       -0.0211
     21 C          -1.3892    1.7118   -2.1498 C.3     1  UNL1        0.0196
     22 C          -3.4535    1.6608   -0.7083 C.3     1  UNL1        0.0255
     23 C          -1.7454    1.9840    1.7160 C.2     1  UNL1        0.3514
     24 C           3.9555    0.7446    0.3262 C.2     1  UNL1        0.2684
     25 C           4.6071   -0.5265   -0.1537 C.2     1  UNL1        0.1897
     26 C           4.1261   -1.8415    0.2822 C.ar    1  UNL1        0.1067
     27 C          -5.6270   -0.0195   -0.4939 C.2     1  UNL1        0.2547
     28 C          -6.3039   -1.3096   -0.3337 C.ar    1  UNL1        0.1808
     29 C           3.0656   -2.0230    1.1450 C.ar    1  UNL1        0.0067
     30 C           4.1328   -4.0333    0.3561 C.ar    1  UNL1        0.1562
     31 C          -5.8130   -2.5789   -0.1337 C.ar    1  UNL1       -0.0121
     32 C          -6.9417   -3.4289   -0.0534 C.ar    1  UNL1       -0.0232
     33 C          -8.0420   -2.6185   -0.2102 C.ar    1  UNL1        0.0927
     34 C           7.0491    0.8107   -2.1986 C.3     1  UNL1        0.1072
     35 H           0.6519    3.6264   -1.3050 H       1  UNL1        0.0644
     36 HA          2.7869    3.2649   -0.2226 H       1  UNL1        0.0622
     37 H          -1.5785    2.6444   -2.6927 H       1  UNL1        0.0423
     38 H          -1.8895    0.9041   -2.6938 H       1  UNL1        0.0423
     39 H           2.7067    0.6004   -1.3110 H       1  UNL1        0.1499
     40 H          -3.8922    2.2396    0.1120 H       1  UNL1        0.0427
     41 H          -3.8973    2.0451   -1.6338 H       1  UNL1        0.0427
     42 H          -1.9348    3.1810    3.2340 H       1  UNL1        0.2954
     43 H           2.4372   -1.2860    1.6251 H       1  UNL1        0.0716
     44 H          -4.7783   -2.8794   -0.0516 H       1  UNL1        0.0657
     45 H          -6.9521   -4.4983    0.0998 H       1  UNL1        0.0649
     46 H          -9.1071   -2.7981   -0.2236 H       1  UNL1        0.1029
     47 H           7.3172    1.8381   -2.4584 H       1  UNL1        0.0687
     48 H           6.7774    0.2763   -3.1142 H       1  UNL1        0.0687
     49 H           7.9112    0.3317   -1.7241 H       1  UNL1        0.0687
     50 H           3.9866   -6.1003    0.5476 H       1  UNL1        0.1442
     51 H           5.2535   -5.5665   -0.4943 H       1  UNL1        0.1442
@<TRIPOS>BOND
     1     1    16    1
     2     1    21    1
     3     2    22    1
     4     2    27    1
     5     3    29   ar
     6     3    30   ar
     7     4    18    2
     8     5    23    1
     9     5    42    1
    10     6    23    2
    11     7    24    2
    12     8    13    1
    13     8    34    1
    14     9    27    2
    15    10    28   ar
    16    10    33   ar
    17    11    16    1
    18    11    18   am
    19    11    19    1
    20    12    17    1
    21    12    24   am
    22    12    39    1
    23    13    25    2
    24    14    26   ar
    25    14    30   ar
    26    15    30    1
    27    15    50    1
    28    15    51    1
    29    16    17    1
    30    16    35    1
    31    17    18    1
    32    17    36    1
    33    19    20    2
    34    19    23    1
    35    20    21    1
    36    20    22    1
    37    21    37    1
    38    21    38    1
    39    22    40    1
    40    22    41    1
    41    24    25    1
    42    25    26    1
    43    26    29   ar
    44    27    28    1
    45    28    31   ar
    46    29    43    1
    47    31    32   ar
    48    31    44    1
    49    32    33   ar
    50    32    45    1
    51    33    46    1
    52    34    47    1
    53    34    48    1
    54    34    49    1
