@<TRIPOS>MOLECULE
487101
 42 45 0 0 0
SMALL
GASTEIGER

@<TRIPOS>ATOM
      1 CL          1.3485    1.6272   -0.2405 Cl      1  UNL1       -0.0794
      2 F           3.4475   -2.9314    0.0515 F       1  UNL1       -0.2035
      3 F          -1.5782    1.2410    2.3812 F       1  UNL1       -0.2016
      4 F          -1.7231    5.4757    0.2635 F       1  UNL1       -0.2018
      5 O           6.7064    0.5658    0.3707 O.3     1  UNL1       -0.3887
      6 O          -1.4291   -4.1156    0.0891 O.2     1  UNL1       -0.2863
      7 O          -3.9127   -3.8846   -0.7538 O.3     1  UNL1       -0.4770
      8 O          -4.9779   -2.1460    0.2822 O.2     1  UNL1       -0.2449
      9 N           3.5970   -0.2122   -0.1114 N.pl3   1  UNL1       -0.3215
     10 N          -1.3417   -0.0164   -0.0631 N.ar    1  UNL1       -0.2960
     11 N          -1.4167    2.1364   -1.1369 N.ar    1  UNL1       -0.2091
     12 N          -1.4911    4.2698   -2.1900 N.pl3   1  UNL1       -0.3408
     13 C           5.4014    0.7365   -0.2271 C.3     1  UNL1        0.0864
     14 C           4.2197    0.7363    0.7477 C.3     1  UNL1        0.0399
     15 C           4.7803   -0.5235   -0.8381 C.3     1  UNL1        0.0399
     16 C           2.3417   -0.8337   -0.0613 C.ar    1  UNL1        0.0861
     17 C           1.1504   -0.1025   -0.0938 C.ar    1  UNL1        0.0892
     18 C          -0.1015   -0.7422   -0.0317 C.ar    1  UNL1        0.0791
     19 C           2.3105   -2.2214    0.0200 C.ar    1  UNL1        0.1465
     20 C          -0.1070   -2.1535    0.0205 C.ar    1  UNL1        0.0506
     21 C           1.0880   -2.8855    0.0553 C.ar    1  UNL1       -0.0117
     22 C          -1.3928   -2.8938    0.0144 C.ar    1  UNL1        0.2035
     23 C          -2.5201   -0.7574   -0.1242 C.ar    1  UNL1        0.0296
     24 C          -2.6315   -2.0905   -0.0952 C.ar    1  UNL1        0.1224
     25 C          -1.4412    1.4115    0.0119 C.ar    1  UNL1        0.1758
     26 C          -1.5580    1.9912    1.2720 C.ar    1  UNL1        0.1688
     27 C          -3.9714   -2.6777   -0.1522 C.2     1  UNL1        0.3420
     28 C          -1.6541    3.3757    1.3572 C.ar    1  UNL1        0.0159
     29 C          -1.5122    3.4793   -1.0146 C.ar    1  UNL1        0.1542
     30 C          -1.6316    4.1413    0.1968 C.ar    1  UNL1        0.1656
     31 H           5.3993    1.5924   -0.9138 H       1  UNL1        0.0625
     32 H           4.4292    0.3175    1.7376 H       1  UNL1        0.0490
     33 H           3.7340    1.7050    0.8557 H       1  UNL1        0.0490
     34 H           4.6399   -0.5000   -1.9215 H       1  UNL1        0.0490
     35 H           5.2464   -1.4637   -0.5310 H       1  UNL1        0.0490
     36 H           6.8768    1.4015    0.8377 H       1  UNL1        0.2099
     37 H           1.0850   -3.9710    0.1012 H       1  UNL1        0.0654
     38 H          -3.4040   -0.1278   -0.1927 H       1  UNL1        0.0823
     39 H          -1.7459    3.8569    2.3260 H       1  UNL1        0.0677
     40 H          -4.7941   -4.3113   -0.8108 H       1  UNL1        0.2954
     41 H          -1.9638    5.1651   -2.1758 H       1  UNL1        0.1438
     42 H          -1.4120    3.7809   -3.0729 H       1  UNL1        0.1438
@<TRIPOS>BOND
     1     1    17    1
     2     2    19    1
     3     3    26    1
     4     4    30    1
     5     5    13    1
     6     5    36    1
     7     6    22    2
     8     7    27    1
     9     7    40    1
    10     8    27    2
    11     9    14    1
    12     9    15    1
    13     9    16    1
    14    10    18   ar
    15    10    23   ar
    16    10    25    1
    17    11    25   ar
    18    11    29   ar
    19    12    29    1
    20    12    41    1
    21    12    42    1
    22    13    14    1
    23    13    15    1
    24    13    31    1
    25    14    32    1
    26    14    33    1
    27    15    34    1
    28    15    35    1
    29    16    17   ar
    30    16    19   ar
    31    17    18   ar
    32    18    20   ar
    33    19    21   ar
    34    20    21   ar
    35    20    22   ar
    36    21    37    1
    37    22    24   ar
    38    23    24   ar
    39    23    38    1
    40    24    27    1
    41    25    26   ar
    42    26    28   ar
    43    28    30   ar
    44    28    39    1
    45    29    30   ar
