@<TRIPOS>MOLECULE
439369
 81 83 0 0 0
SMALL
GASTEIGER

@<TRIPOS>ATOM
      1 O           0.3232   -0.6192   -0.1434 O.3     1  UNL1       -0.3391
      2 O          -0.1279   -2.7523    0.7797 O.3     1  UNL1       -0.3427
      3 O          -2.7172   -0.2925    0.5212 O.3     1  UNL1       -0.3384
      4 O          -2.8175   -2.6312    1.9625 O.3     1  UNL1       -0.3810
      5 O          -3.1273    0.3370   -1.7234 O.3     1  UNL1       -0.3415
      6 O           2.1959   -2.6699   -0.8257 O.3     1  UNL1       -0.3864
      7 O           3.9519    2.2661    1.1131 O.3     1  UNL1       -0.3845
      8 O           4.7948   -1.6839   -1.4576 O.3     1  UNL1       -0.3855
      9 O          -3.3553   -3.3606   -1.5534 O.3     1  UNL1       -0.3920
     10 O          -4.6953    3.6652    0.1584 O.3     1  UNL1       -0.3874
     11 O          -2.2216    3.8748   -1.2494 O.3     1  UNL1       -0.3865
     12 O          -0.9678    0.4153   -3.4094 O.3     1  UNL1       -0.3924
     13 N           1.3169    1.2659    1.8210 N.pl3   1  UNL1       -0.1049
     14 N          -5.1447    0.9902    1.3328 N.3     1  UNL1       -0.3099
     15 N           5.8510    0.1826    0.5071 N.pl3   1  UNL1       -0.1049
     16 N           1.4295    3.5079    0.9658 N.pl3   1  UNL1       -0.2892
     17 N           0.3358    3.0492    2.9123 N.pl3   1  UNL1       -0.2892
     18 N           8.1148    0.2223    0.0519 N.pl3   1  UNL1       -0.2892
     19 N           6.7027    0.3706   -1.7310 N.pl3   1  UNL1       -0.2892
     20 C          -1.9382   -1.3906    0.0881 C.3     1  UNL1        0.1455
     21 C          -2.4838   -2.7215    0.5769 C.3     1  UNL1        0.1454
     22 C          -0.5403   -1.3769    0.6912 C.3     1  UNL1        0.1891
     23 C           1.6658   -0.6359    0.3500 C.3     1  UNL1        0.1293
     24 C          -1.2400   -3.5946    0.4041 C.3     1  UNL1        0.0924
     25 C           2.1005    0.7963    0.6647 C.3     1  UNL1        0.1727
     26 C           2.5633   -1.2923   -0.7007 C.3     1  UNL1        0.1141
     27 C           3.5843    0.8867    1.0302 C.3     1  UNL1        0.1337
     28 C           4.0455   -1.2075   -0.3365 C.3     1  UNL1        0.1228
     29 C           4.4766    0.2261   -0.0231 C.3     1  UNL1        0.1724
     30 C          -3.7051    0.0688   -0.4423 C.3     1  UNL1        0.1780
     31 C          -3.7030   -3.2124   -0.1871 C.3     1  UNL1        0.0780
     32 C          -4.5827    1.2466    0.0066 C.3     1  UNL1        0.0876
     33 C          -3.7981    2.5654   -0.0101 C.3     1  UNL1        0.1035
     34 C          -1.2007   -4.8623    1.2404 C.3     1  UNL1       -0.0357
     35 C          -3.0888    2.7479   -1.3566 C.3     1  UNL1        0.1109
     36 C          -2.2891    1.4965   -1.7378 C.3     1  UNL1        0.1129
     37 C          -1.6958    1.5995   -3.1404 C.3     1  UNL1        0.0730
     38 C           1.0618    2.5320    1.8654 C.cat   1  UNL1        0.3769
     39 C          -5.8784   -0.2654    1.3467 C.3     1  UNL1       -0.0153
     40 C           6.8041    0.2562   -0.3624 C.cat   1  UNL1        0.3769
     41 H          -1.8106   -1.3952   -1.0015 H       1  UNL1        0.0679
     42 H          -0.5501   -0.9437    1.6992 H       1  UNL1        0.0938
     43 H           1.7320   -1.2279    1.2752 H       1  UNL1        0.0661
     44 H          -1.0778   -3.8568   -0.6485 H       1  UNL1        0.0624
     45 H           1.8844    1.3943   -0.2294 H       1  UNL1        0.0784
     46 H           2.3807   -0.8412   -1.6844 H       1  UNL1        0.0648
     47 H           3.7588    0.4413    2.0184 H       1  UNL1        0.0667
     48 H           4.2585   -1.8816    0.5033 H       1  UNL1        0.0657
     49 H           4.4191    0.8510   -0.9231 H       1  UNL1        0.0784
     50 H          -4.3652   -0.7726   -0.6295 H       1  UNL1        0.0927
     51 H          -3.9826   -4.2075    0.1791 H       1  UNL1        0.0587
     52 H          -4.6078   -2.6189   -0.0706 H       1  UNL1        0.0587
     53 H          -5.4092    1.3555   -0.7109 H       1  UNL1        0.0537
     54 H          -3.0716    2.6105    0.8106 H       1  UNL1        0.0637
     55 H          -1.1853   -4.6385    2.3123 H       1  UNL1        0.0255
     56 H          -0.2783   -5.4167    1.0344 H       1  UNL1        0.0255
     57 H          -2.0506   -5.5148    1.0224 H       1  UNL1        0.0255
     58 H          -3.8353    2.9752   -2.1286 H       1  UNL1        0.0646
     59 H          -1.4618    1.3482   -1.0322 H       1  UNL1        0.0647
     60 H          -3.2295   -3.4691    2.2332 H       1  UNL1        0.2105
     61 H          -5.7755    1.7542    1.5751 H       1  UNL1        0.1221
     62 H           2.7844   -3.0680   -1.4898 H       1  UNL1        0.2100
     63 H           4.8958    2.3019    1.3444 H       1  UNL1        0.2101
     64 H           5.6924   -1.8867   -1.1453 H       1  UNL1        0.2100
     65 H          -2.4841    1.6776   -3.8958 H       1  UNL1        0.0584
     66 H          -1.0197    2.4525   -3.2458 H       1  UNL1        0.0584
     67 H          -3.4139   -2.4857   -1.9721 H       1  UNL1        0.2095
     68 H          -5.3600    3.6256   -0.5501 H       1  UNL1        0.2100
     69 H          -1.9245    4.1075   -2.1448 H       1  UNL1        0.2100
     70 H          -6.5181   -0.2855    2.2361 H       1  UNL1        0.0388
     71 H          -5.2125   -1.1241    1.4451 H       1  UNL1        0.0388
     72 H          -6.5358   -0.3868    0.4793 H       1  UNL1        0.0388
     73 H          -0.2536    0.3507   -2.7525 H       1  UNL1        0.2095
     74 H           1.1550    4.4735    1.1127 H       1  UNL1        0.2546
     75 H           2.0081    3.3279    0.1544 H       1  UNL1        0.2546
     76 H          -0.0075    2.4520    3.6567 H       1  UNL1        0.2546
     77 H           0.1205    4.0384    2.9712 H       1  UNL1        0.2546
     78 H           8.3511    0.1398    1.0348 H       1  UNL1        0.2546
     79 H           8.8818    0.2771   -0.6091 H       1  UNL1        0.2546
     80 H           7.5366    0.4269   -2.3062 H       1  UNL1        0.2546
     81 H           5.8197    0.3654   -2.2268 H       1  UNL1        0.2546
@<TRIPOS>BOND
     1     1    22    1
     2     1    23    1
     3     2    22    1
     4     2    24    1
     5     3    20    1
     6     3    30    1
     7     4    21    1
     8     4    60    1
     9     5    30    1
    10     5    36    1
    11     6    26    1
    12     6    62    1
    13     7    27    1
    14     7    63    1
    15     8    28    1
    16     8    64    1
    17     9    31    1
    18     9    67    1
    19    10    33    1
    20    10    68    1
    21    11    35    1
    22    11    69    1
    23    12    37    1
    24    12    73    1
    25    13    25    1
    26    13    38    2
    27    14    32    1
    28    14    39    1
    29    14    61    1
    30    15    29    1
    31    15    40    2
    32    16    38    1
    33    16    74    1
    34    16    75    1
    35    17    38    1
    36    17    76    1
    37    17    77    1
    38    18    40    1
    39    18    78    1
    40    18    79    1
    41    19    40    1
    42    19    80    1
    43    19    81    1
    44    20    21    1
    45    20    22    1
    46    20    41    1
    47    21    24    1
    48    21    31    1
    49    22    42    1
    50    23    25    1
    51    23    26    1
    52    23    43    1
    53    24    34    1
    54    24    44    1
    55    25    27    1
    56    25    45    1
    57    26    28    1
    58    26    46    1
    59    27    29    1
    60    27    47    1
    61    28    29    1
    62    28    48    1
    63    29    49    1
    64    30    32    1
    65    30    50    1
    66    31    51    1
    67    31    52    1
    68    32    33    1
    69    32    53    1
    70    33    35    1
    71    33    54    1
    72    34    55    1
    73    34    56    1
    74    34    57    1
    75    35    36    1
    76    35    58    1
    77    36    37    1
    78    36    59    1
    79    37    65    1
    80    37    66    1
    81    39    70    1
    82    39    71    1
    83    39    72    1
