@<TRIPOS>MOLECULE
5360807
 96 98 0 0 0
SMALL
GASTEIGER

@<TRIPOS>ATOM
      1 O          -3.1721   -1.0200   -0.7603 O.3     1  UNL1       -0.3666
      2 O          -3.2674    1.4908    0.2936 O.3     1  UNL1       -0.3680
      3 O          -4.6315    3.4180    1.9370 O.3     1  UNL1       -0.3860
      4 O          -0.3391   -2.5637   -1.5141 O.2     1  UNL1       -0.2967
      5 O           0.8583   -0.6785    0.4696 O.3     1  UNL1       -0.3908
      6 O           6.4184    2.8717   -1.3179 O.3     1  UNL1       -0.5057
      7 O           3.9948    0.8249   -2.4077 O.3     1  UNL1       -0.4770
      8 O           3.2743    1.8759   -0.5254 O.2     1  UNL1       -0.2450
      9 C          -4.4527   -0.3780   -0.5882 C.3     1  UNL1        0.0960
     10 C          -4.9695   -0.8088    0.7866 C.3     1  UNL1       -0.0163
     11 C          -4.2986   -2.1552    0.9839 C.3     1  UNL1       -0.0142
     12 C          -4.2559    1.1303   -0.6741 C.3     1  UNL1        0.0881
     13 C          -2.9335   -1.8939    0.3577 C.3     1  UNL1        0.0716
     14 C          -5.5658    1.8662   -0.4023 C.3     1  UNL1       -0.0212
     15 C          -5.3652   -0.8575   -1.7194 C.3     1  UNL1       -0.0241
     16 C          -2.2305   -3.1482   -0.1285 C.3     1  UNL1        0.0441
     17 C          -4.2020    3.7387    0.6038 C.3     1  UNL1        0.0917
     18 C          -5.3385    3.3752   -0.3627 C.3     1  UNL1       -0.0191
     19 C          -2.9399    2.8898    0.3358 C.3     1  UNL1        0.0850
     20 C          -4.2399   -2.5984    2.4356 C.3     1  UNL1       -0.0600
     21 C          -2.9038   -3.7786   -1.3567 C.3     1  UNL1       -0.0440
     22 C          -0.7481   -2.8772   -0.3950 C.2     1  UNL1        0.1441
     23 C          -3.9230    5.2430    0.5718 C.3     1  UNL1       -0.0244
     24 C          -4.8387   -0.4226   -3.0721 C.3     1  UNL1       -0.0626
     25 C          -2.1382    3.2820   -0.9059 C.3     1  UNL1       -0.0360
     26 C           0.2044   -2.9974    0.8004 C.3     1  UNL1        0.0412
     27 C           1.3757   -2.0041    0.6227 C.3     1  UNL1        0.0670
     28 C          -2.3123   -5.1101   -1.8016 C.3     1  UNL1       -0.0646
     29 C          -2.8026    5.6149    1.5218 C.3     1  UNL1       -0.0626
     30 C           2.3867   -1.9804    1.7975 C.3     1  UNL1       -0.0168
     31 C           0.6447   -4.4522    0.9674 C.3     1  UNL1       -0.0533
     32 C           3.5892   -1.0382    1.5360 C.3     1  UNL1       -0.0441
     33 C           1.7186   -1.6478    3.1352 C.3     1  UNL1       -0.0600
     34 C           4.3708   -1.3230    0.2482 C.3     1  UNL1       -0.0265
     35 C           5.5493   -0.3916    0.1028 C.ar    1  UNL1       -0.0298
     36 C           5.4268    0.8321   -0.5554 C.ar    1  UNL1        0.1035
     37 C           6.7777   -0.7740    0.6416 C.ar    1  UNL1       -0.0573
     38 C           6.5329    1.6737   -0.6746 C.ar    1  UNL1        0.1340
     39 C           7.8838    0.0676    0.5221 C.ar    1  UNL1       -0.0551
     40 C           7.7614    1.2913   -0.1359 C.ar    1  UNL1       -0.0082
     41 C           4.1434    1.2356   -1.1203 C.2     1  UNL1        0.3406
     42 C           8.9575    2.1778   -0.2531 C.3     1  UNL1       -0.0362
     43 H          -4.6462   -0.1251    1.5813 H       1  UNL1        0.0297
     44 H          -6.0615   -0.8756    0.8390 H       1  UNL1        0.0297
     45 H          -4.8683   -2.9018    0.4214 H       1  UNL1        0.0324
     46 H          -3.8463    1.4075   -1.6485 H       1  UNL1        0.0625
     47 H          -2.2959   -1.3379    1.0571 H       1  UNL1        0.0606
     48 H          -6.3152    1.6510   -1.1703 H       1  UNL1        0.0292
     49 H          -5.9955    1.5715    0.5617 H       1  UNL1        0.0292
     50 H          -6.3981   -0.5167   -1.5922 H       1  UNL1        0.0291
     51 H          -5.4019   -1.9537   -1.7216 H       1  UNL1        0.0291
     52 H          -2.2581   -3.8986    0.6720 H       1  UNL1        0.0403
     53 H          -6.2734    3.8605   -0.0559 H       1  UNL1        0.0294
     54 H          -5.1069    3.7313   -1.3739 H       1  UNL1        0.0294
     55 H          -2.2659    2.9672    1.1973 H       1  UNL1        0.0622
     56 H          -5.2487   -2.6832    2.8528 H       1  UNL1        0.0233
     57 H          -3.7543   -3.5748    2.5282 H       1  UNL1        0.0233
     58 H          -3.6813   -1.8850    3.0509 H       1  UNL1        0.0233
     59 H          -3.9656   -3.9548   -1.1592 H       1  UNL1        0.0270
     60 H          -2.8567   -3.0923   -2.2113 H       1  UNL1        0.0270
     61 H          -4.8225    5.7924    0.8778 H       1  UNL1        0.0291
     62 H          -3.6746    5.5797   -0.4411 H       1  UNL1        0.0291
     63 H          -5.0120    0.6407   -3.2622 H       1  UNL1        0.0231
     64 H          -3.7740   -0.6394   -3.2011 H       1  UNL1        0.0231
     65 H          -5.3750   -0.9640   -3.8598 H       1  UNL1        0.0231
     66 H          -1.3620    2.5347   -1.1058 H       1  UNL1        0.0255
     67 H          -1.6486    4.2525   -0.7941 H       1  UNL1        0.0255
     68 H          -2.7654    3.3315   -1.8011 H       1  UNL1        0.0255
     69 H          -0.3819   -2.6936    1.6755 H       1  UNL1        0.0400
     70 H          -5.4432    3.9209    2.1213 H       1  UNL1        0.2103
     71 H           1.9027   -2.2576   -0.3030 H       1  UNL1        0.0603
     72 H          -2.8834   -5.5132   -2.6442 H       1  UNL1        0.0230
     73 H          -2.3477   -5.8416   -0.9880 H       1  UNL1        0.0230
     74 H          -1.2725   -5.0059   -2.1243 H       1  UNL1        0.0230
     75 H          -3.0084    5.2891    2.5464 H       1  UNL1        0.0231
     76 H          -2.6962    6.7052    1.5474 H       1  UNL1        0.0231
     77 H          -1.8317    5.2143    1.2221 H       1  UNL1        0.0231
     78 H           2.8108   -2.9883    1.8938 H       1  UNL1        0.0323
     79 H           1.1841   -4.6008    1.9071 H       1  UNL1        0.0237
     80 H          -0.2162   -5.1288    0.9717 H       1  UNL1        0.0237
     81 H           1.2964   -4.7599    0.1424 H       1  UNL1        0.0237
     82 H           4.2756   -1.1121    2.3907 H       1  UNL1        0.0272
     83 H           3.2348    0.0004    1.5309 H       1  UNL1        0.0272
     84 H           2.4637   -1.6117    3.9376 H       1  UNL1        0.0233
     85 H           0.9824   -2.4049    3.4199 H       1  UNL1        0.0233
     86 H           1.2183   -0.6746    3.1033 H       1  UNL1        0.0233
     87 H           0.3907   -0.6357   -0.3812 H       1  UNL1        0.2098
     88 H           4.7271   -2.3613    0.2598 H       1  UNL1        0.0313
     89 H           3.7325   -1.2496   -0.6367 H       1  UNL1        0.0313
     90 H           6.8871   -1.7235    1.1589 H       1  UNL1        0.0621
     91 H           8.8335   -0.2451    0.9479 H       1  UNL1        0.0621
     92 H           9.1999    2.3521   -1.3066 H       1  UNL1        0.0279
     93 H           8.7679    3.1390    0.2360 H       1  UNL1        0.0279
     94 H           9.8418    1.7369    0.2194 H       1  UNL1        0.0279
     95 H           5.5131    3.0056   -1.6409 H       1  UNL1        0.2922
     96 H           3.1296    1.0985   -2.7806 H       1  UNL1        0.2954
@<TRIPOS>BOND
     1     1     9    1
     2     1    13    1
     3     2    12    1
     4     2    19    1
     5     3    17    1
     6     3    70    1
     7     4    22    2
     8     5    27    1
     9     5    87    1
    10     6    38    1
    11     6    95    1
    12     7    41    1
    13     7    96    1
    14     8    41    2
    15     9    10    1
    16     9    12    1
    17     9    15    1
    18    10    11    1
    19    10    43    1
    20    10    44    1
    21    11    13    1
    22    11    20    1
    23    11    45    1
    24    12    14    1
    25    12    46    1
    26    13    16    1
    27    13    47    1
    28    14    18    1
    29    14    48    1
    30    14    49    1
    31    15    24    1
    32    15    50    1
    33    15    51    1
    34    16    21    1
    35    16    22    1
    36    16    52    1
    37    17    18    1
    38    17    19    1
    39    17    23    1
    40    18    53    1
    41    18    54    1
    42    19    25    1
    43    19    55    1
    44    20    56    1
    45    20    57    1
    46    20    58    1
    47    21    28    1
    48    21    59    1
    49    21    60    1
    50    22    26    1
    51    23    29    1
    52    23    61    1
    53    23    62    1
    54    24    63    1
    55    24    64    1
    56    24    65    1
    57    25    66    1
    58    25    67    1
    59    25    68    1
    60    26    27    1
    61    26    31    1
    62    26    69    1
    63    27    30    1
    64    27    71    1
    65    28    72    1
    66    28    73    1
    67    28    74    1
    68    29    75    1
    69    29    76    1
    70    29    77    1
    71    30    32    1
    72    30    33    1
    73    30    78    1
    74    31    79    1
    75    31    80    1
    76    31    81    1
    77    32    34    1
    78    32    82    1
    79    32    83    1
    80    33    84    1
    81    33    85    1
    82    33    86    1
    83    34    35    1
    84    34    88    1
    85    34    89    1
    86    35    36   ar
    87    35    37   ar
    88    36    38   ar
    89    36    41    1
    90    37    39   ar
    91    37    90    1
    92    38    40   ar
    93    39    40   ar
    94    39    91    1
    95    40    42    1
    96    42    92    1
    97    42    93    1
    98    42    94    1
