@<TRIPOS>MOLECULE
72493
 109 112 0 0 0
SMALL
GASTEIGER

@<TRIPOS>ATOM
      1 O          -2.1589    0.8811    2.1020 O.3     1  UNL1       -0.3603
      2 O           2.1757    1.3953   -0.3703 O.3     1  UNL1       -0.3449
      3 O          -0.4903   -2.0390   -0.7888 O.3     1  UNL1       -0.3469
      4 O           3.8642    0.2184    0.7289 O.3     1  UNL1       -0.3457
      5 O          -2.4176    4.2543    2.3527 O.2     1  UNL1       -0.2939
      6 O          -4.0540    0.5854   -1.3337 O.3     1  UNL1       -0.4610
      7 O          -5.1095    4.3202    0.8964 O.3     1  UNL1       -0.3907
      8 O           0.5054   -2.8249    1.2193 O.3     1  UNL1       -0.3456
      9 O           4.0970    2.4822   -2.1319 O.3     1  UNL1       -0.3852
     10 O          -3.8811   -1.5690   -0.5212 O.2     1  UNL1       -0.2504
     11 O          -1.7140   -6.1711    0.2173 O.3     1  UNL1       -0.3770
     12 O           1.1634   -6.2598    0.0695 O.3     1  UNL1       -0.3867
     13 N           6.8279    2.6269   -0.9746 N.3     1  UNL1       -0.3027
     14 C          -1.4565    2.1286    2.0056 C.3     1  UNL1        0.1508
     15 C          -0.0541    2.0778    1.4249 C.3     1  UNL1       -0.0096
     16 C           0.6377    0.6932    1.3540 C.3     1  UNL1       -0.0140
     17 C           1.2166    0.3784   -0.0568 C.3     1  UNL1        0.0694
     18 C          -1.7355    1.4582    3.3404 C.3     1  UNL1        0.0850
     19 C           0.1709    0.2851   -1.2128 C.3     1  UNL1        0.0100
     20 C          -2.3392    3.2706    1.6250 C.2     1  UNL1        0.1723
     21 C          -0.9843   -0.7077   -0.9130 C.3     1  UNL1        0.0792
     22 C          -3.0842    3.1391    0.2961 C.3     1  UNL1        0.0440
     23 C           1.7666    0.6310    2.3991 C.3     1  UNL1       -0.0599
     24 C          -4.5956    3.0155    0.5975 C.3     1  UNL1        0.0705
     25 C          -2.1374   -0.6531   -1.9470 C.3     1  UNL1        0.0801
     26 C           3.4870    0.8453   -0.4955 C.3     1  UNL1        0.1870
     27 C           0.8818   -0.0627   -2.5331 C.3     1  UNL1       -0.0577
     28 C          -5.5146    2.3565   -0.4738 C.3     1  UNL1        0.0197
     29 C           4.4472    1.9889   -0.8397 C.3     1  UNL1        0.1214
     30 C           5.9022    1.5008   -0.8431 C.3     1  UNL1        0.0429
     31 C          -2.6708    4.3306   -0.5704 C.3     1  UNL1       -0.0532
     32 C          -5.2817    0.8281   -0.6169 C.3     1  UNL1        0.1052
     33 C           6.2114    0.7316    0.4436 C.3     1  UNL1       -0.0085
     34 C           5.1683   -0.3637    0.6690 C.3     1  UNL1        0.0605
     35 C          -0.7116   -2.5564    0.5199 C.3     1  UNL1        0.1624
     36 C          -3.4564   -0.6323   -1.1856 C.2     1  UNL1        0.3127
     37 C          -2.1794   -1.8086   -2.9456 C.3     1  UNL1       -0.0499
     38 C          -1.6242   -3.7803    0.5052 C.3     1  UNL1        0.0272
     39 C          -5.4904    3.0859   -1.8218 C.3     1  UNL1       -0.0567
     40 C          -0.9038   -5.0215   -0.0182 C.3     1  UNL1        0.0911
     41 C           0.4360   -5.2056    0.6953 C.3     1  UNL1        0.1073
     42 C           1.2550   -3.9096    0.6661 C.3     1  UNL1        0.0871
     43 C          -6.4312    0.1511   -1.3681 C.3     1  UNL1       -0.0274
     44 C           5.4131   -1.0916    1.9836 C.3     1  UNL1       -0.0385
     45 C           6.8846    3.0810   -2.3631 C.3     1  UNL1       -0.0127
     46 C           8.1599    2.2496   -0.5044 C.3     1  UNL1       -0.0127
     47 C           2.5390   -4.0399    1.4799 C.3     1  UNL1       -0.0361
     48 C          -2.7342   -6.2941   -0.7619 C.3     1  UNL1        0.0369
     49 H          -0.1084    2.5159    0.4230 H       1  UNL1        0.0301
     50 H           0.5603    2.7798    2.0035 H       1  UNL1        0.0301
     51 H          -0.0545   -0.0986    1.6320 H       1  UNL1        0.0324
     52 H           1.6988   -0.6077    0.0031 H       1  UNL1        0.0603
     53 H          -0.9305    0.9696    3.8715 H       1  UNL1        0.0593
     54 H          -2.5019    1.8718    3.9844 H       1  UNL1        0.0593
     55 H          -0.2640    1.2818   -1.3603 H       1  UNL1        0.0348
     56 H          -1.4217   -0.3456    0.0192 H       1  UNL1        0.0608
     57 H          -2.7200    2.2280   -0.1844 H       1  UNL1        0.0401
     58 H           2.5054    1.4268    2.2683 H       1  UNL1        0.0233
     59 H           1.3496    0.7658    3.4036 H       1  UNL1        0.0233
     60 H           2.2492   -0.3507    2.4022 H       1  UNL1        0.0233
     61 H          -4.7248    2.4309    1.5183 H       1  UNL1        0.0604
     62 H          -2.0777    0.2862   -2.5120 H       1  UNL1        0.0436
     63 H           3.4789    0.1012   -1.3029 H       1  UNL1        0.0937
     64 H           1.3683   -1.0420   -2.4802 H       1  UNL1        0.0234
     65 H           0.1808   -0.0727   -3.3723 H       1  UNL1        0.0234
     66 H           1.6430    0.6833   -2.7815 H       1  UNL1        0.0234
     67 H          -6.5368    2.4876   -0.0879 H       1  UNL1        0.0359
     68 H           4.3158    2.8096   -0.1233 H       1  UNL1        0.0660
     69 H           6.0462    0.8024   -1.6810 H       1  UNL1        0.0490
     70 H          -3.0637    4.2560   -1.5854 H       1  UNL1        0.0237
     71 H          -1.5786    4.3813   -0.6526 H       1  UNL1        0.0237
     72 H          -2.9998    5.2849   -0.1460 H       1  UNL1        0.0237
     73 H          -5.2096    0.3921    0.3879 H       1  UNL1        0.0734
     74 H           6.1879    1.4172    1.3022 H       1  UNL1        0.0306
     75 H           7.1862    0.2321    0.4161 H       1  UNL1        0.0306
     76 H           5.1931   -1.0969   -0.1473 H       1  UNL1        0.0595
     77 H          -1.2384   -1.8396    1.1563 H       1  UNL1        0.0910
     78 H          -1.2462   -1.8864   -3.5101 H       1  UNL1        0.0238
     79 H          -2.9936   -1.6597   -3.6639 H       1  UNL1        0.0238
     80 H          -2.3616   -2.7707   -2.4552 H       1  UNL1        0.0238
     81 H          -1.9687   -3.9885    1.5270 H       1  UNL1        0.0340
     82 H          -2.5157   -3.5858   -0.0941 H       1  UNL1        0.0340
     83 H          -4.5758    2.8785   -2.3840 H       1  UNL1        0.0234
     84 H          -6.3334    2.7725   -2.4465 H       1  UNL1        0.0234
     85 H          -5.5800    4.1690   -1.6909 H       1  UNL1        0.0234
     86 H          -0.7126   -4.9230   -1.0958 H       1  UNL1        0.0624
     87 H           0.2500   -5.5141    1.7316 H       1  UNL1        0.0645
     88 H          -4.6241    4.6608    1.6668 H       1  UNL1        0.2098
     89 H           1.5409   -3.6608   -0.3643 H       1  UNL1        0.0621
     90 H          -7.3983    0.3899   -0.9153 H       1  UNL1        0.0265
     91 H          -6.3146   -0.9376   -1.3561 H       1  UNL1        0.0265
     92 H          -6.4478    0.4437   -2.4229 H       1  UNL1        0.0265
     93 H           6.3834   -1.5974    1.9823 H       1  UNL1        0.0255
     94 H           4.6344   -1.8312    2.1761 H       1  UNL1        0.0255
     95 H           5.3859   -0.3922    2.8270 H       1  UNL1        0.0255
     96 H           4.1979    1.7548   -2.7695 H       1  UNL1        0.2101
     97 H           7.0666    2.2648   -3.0716 H       1  UNL1        0.0391
     98 H           5.9871    3.6271   -2.6600 H       1  UNL1        0.0391
     99 H           7.6955    3.8090   -2.4926 H       1  UNL1        0.0391
    100 H           8.8737    3.0532   -0.7277 H       1  UNL1        0.0391
    101 H           8.5441    1.3453   -0.9915 H       1  UNL1        0.0391
    102 H           8.2157    2.1515    0.5849 H       1  UNL1        0.0391
    103 H           3.0924   -3.1001    1.4337 H       1  UNL1        0.0255
    104 H           3.1818   -4.8398    1.1016 H       1  UNL1        0.0255
    105 H           2.3195   -4.2288    2.5362 H       1  UNL1        0.0255
    106 H           1.3485   -5.9926   -0.8469 H       1  UNL1        0.2100
    107 H          -3.4544   -5.4744   -0.6972 H       1  UNL1        0.0524
    108 H          -2.3083   -6.3484   -1.7687 H       1  UNL1        0.0524
    109 H          -3.2724   -7.2272   -0.5718 H       1  UNL1        0.0524
@<TRIPOS>BOND
     1     1    14    1
     2     1    18    1
     3     2    17    1
     4     2    26    1
     5     3    21    1
     6     3    35    1
     7     4    26    1
     8     4    34    1
     9     5    20    2
    10     6    32    1
    11     6    36    1
    12     7    24    1
    13     7    88    1
    14     8    35    1
    15     8    42    1
    16     9    29    1
    17     9    96    1
    18    10    36    2
    19    11    40    1
    20    11    48    1
    21    12    41    1
    22    12   106    1
    23    13    30    1
    24    13    45    1
    25    13    46    1
    26    14    15    1
    27    14    18    1
    28    14    20    1
    29    15    16    1
    30    15    49    1
    31    15    50    1
    32    16    17    1
    33    16    23    1
    34    16    51    1
    35    17    19    1
    36    17    52    1
    37    18    53    1
    38    18    54    1
    39    19    21    1
    40    19    27    1
    41    19    55    1
    42    20    22    1
    43    21    25    1
    44    21    56    1
    45    22    24    1
    46    22    31    1
    47    22    57    1
    48    23    58    1
    49    23    59    1
    50    23    60    1
    51    24    28    1
    52    24    61    1
    53    25    36    1
    54    25    37    1
    55    25    62    1
    56    26    29    1
    57    26    63    1
    58    27    64    1
    59    27    65    1
    60    27    66    1
    61    28    32    1
    62    28    39    1
    63    28    67    1
    64    29    30    1
    65    29    68    1
    66    30    33    1
    67    30    69    1
    68    31    70    1
    69    31    71    1
    70    31    72    1
    71    32    43    1
    72    32    73    1
    73    33    34    1
    74    33    74    1
    75    33    75    1
    76    34    44    1
    77    34    76    1
    78    35    38    1
    79    35    77    1
    80    37    78    1
    81    37    79    1
    82    37    80    1
    83    38    40    1
    84    38    81    1
    85    38    82    1
    86    39    83    1
    87    39    84    1
    88    39    85    1
    89    40    41    1
    90    40    86    1
    91    41    42    1
    92    41    87    1
    93    42    47    1
    94    42    89    1
    95    43    90    1
    96    43    91    1
    97    43    92    1
    98    44    93    1
    99    44    94    1
   100    44    95    1
   101    45    97    1
   102    45    98    1
   103    45    99    1
   104    46   100    1
   105    46   101    1
   106    46   102    1
   107    47   103    1
   108    47   104    1
   109    47   105    1
   110    48   107    1
   111    48   108    1
   112    48   109    1
