@<TRIPOS>MOLECULE
11224409
 55 58 0 0 0
SMALL
GASTEIGER

@<TRIPOS>ATOM
      1 F           0.2703    3.0009    0.0606 F       1  UNL1       -0.2048
      2 O           6.3028    0.6295   -0.8962 O.3     1  UNL1       -0.4436
      3 O           4.9196    2.4128   -0.6722 O.2     1  UNL1       -0.2259
      4 O           8.9875   -2.8756    0.1023 O.2     1  UNL1       -0.2761
      5 N           4.1134    0.1907   -0.5676 N.am    1  UNL1       -0.2336
      6 N           8.1717   -0.8010    0.7784 N.am    1  UNL1       -0.3120
      7 N          -6.4318    0.1350    0.3330 N.3     1  UNL1       -0.3065
      8 N          -8.9673   -1.8806    0.6782 N.ar    1  UNL1       -0.1586
      9 N          -9.6849   -2.5803   -0.2152 N.ar    1  UNL1       -0.1964
     10 N          -9.8846   -2.0504   -1.4328 N.ar    1  UNL1       -0.1630
     11 C           6.2098   -0.7840   -0.6709 C.3     1  UNL1        0.1361
     12 C           4.7323   -1.0875   -0.7966 C.3     1  UNL1        0.0616
     13 C           6.7720   -1.1003    0.7081 C.3     1  UNL1        0.0503
     14 C           2.7138    0.3430   -0.3537 C.ar    1  UNL1        0.0423
     15 C           5.0656    1.1988   -0.6941 C.2     1  UNL1        0.4077
     16 C           2.1593    1.6186   -0.2482 C.ar    1  UNL1       -0.0043
     17 C           1.8974   -0.7833   -0.2497 C.ar    1  UNL1       -0.0394
     18 C          -0.0279    0.6418    0.0654 C.ar    1  UNL1        0.0174
     19 C           0.7884    1.7679   -0.0387 C.ar    1  UNL1        0.1328
     20 C           0.5265   -0.6338   -0.0401 C.ar    1  UNL1       -0.0495
     21 C          -1.4511    0.7917    0.2823 C.ar    1  UNL1       -0.0151
     22 C          -4.1945    1.0789    0.6990 C.ar    1  UNL1       -0.0335
     23 C           9.1709   -1.7176    0.4683 C.2     1  UNL1        0.2100
     24 C          -2.2293    1.4817   -0.6472 C.ar    1  UNL1       -0.0536
     25 C          -2.0447    0.2454    1.4202 C.ar    1  UNL1       -0.0536
     26 C          -5.6612    1.2322    0.9209 C.3     1  UNL1        0.0216
     27 C          -3.6009    1.6253   -0.4390 C.ar    1  UNL1       -0.0568
     28 C          -3.4163    0.3890    1.6287 C.ar    1  UNL1       -0.0568
     29 C          10.5529   -1.1364    0.6018 C.3     1  UNL1        0.0121
     30 C          -7.8548    0.3267    0.5620 C.3     1  UNL1        0.0420
     31 C          -8.6737   -0.7881   -0.0325 C.ar    1  UNL1        0.0963
     32 C          -9.2311   -0.8913   -1.3147 C.ar    1  UNL1        0.0735
     33 H           6.7806   -1.3051   -1.4479 H       1  UNL1        0.0766
     34 H           4.4846   -1.4055   -1.8158 H       1  UNL1        0.0507
     35 H           4.4135   -1.8511   -0.0814 H       1  UNL1        0.0507
     36 H           6.6212   -2.1581    0.9496 H       1  UNL1        0.0499
     37 H           6.2858   -0.4951    1.4812 H       1  UNL1        0.0499
     38 H           2.7331    2.5325   -0.3179 H       1  UNL1        0.0665
     39 H           2.2816   -1.7944   -0.3353 H       1  UNL1        0.0636
     40 H           8.4388    0.1399    1.0536 H       1  UNL1        0.1488
     41 H          -0.0933   -1.5247    0.0302 H       1  UNL1        0.0625
     42 H          -1.7879    1.9095   -1.5444 H       1  UNL1        0.0624
     43 H          -1.4557   -0.2916    2.1601 H       1  UNL1        0.0624
     44 H          -5.8578    1.2993    1.9993 H       1  UNL1        0.0474
     45 H          -5.9877    2.1900    0.4947 H       1  UNL1        0.0474
     46 H          -4.1964    2.1624   -1.1725 H       1  UNL1        0.0621
     47 H          -3.8668   -0.0419    2.5189 H       1  UNL1        0.0621
     48 H          -6.1380   -0.7445    0.7593 H       1  UNL1        0.1226
     49 H          10.6399   -0.5684    1.5325 H       1  UNL1        0.0322
     50 H          11.2913   -1.9427    0.6150 H       1  UNL1        0.0322
     51 H          10.7525   -0.4770   -0.2471 H       1  UNL1        0.0322
     52 H          -8.0684    0.3881    1.6369 H       1  UNL1        0.0490
     53 H          -8.1862    1.2706    0.1109 H       1  UNL1        0.0490
     54 H          -9.1969   -0.2042   -2.1471 H       1  UNL1        0.0867
     55 H         -10.0668   -3.4885    0.0238 H       1  UNL1        0.2125
@<TRIPOS>BOND
     1     1    19    1
     2     2    11    1
     3     2    15    1
     4     3    15    2
     5     4    23    2
     6     5    12    1
     7     5    14    1
     8     5    15   am
     9     6    13    1
    10     6    23   am
    11     6    40    1
    12     7    26    1
    13     7    30    1
    14     7    48    1
    15     8     9   ar
    16     8    31   ar
    17     9    10   ar
    18     9    55    1
    19    10    32   ar
    20    11    12    1
    21    11    13    1
    22    11    33    1
    23    12    34    1
    24    12    35    1
    25    13    36    1
    26    13    37    1
    27    14    16   ar
    28    14    17   ar
    29    16    19   ar
    30    16    38    1
    31    17    20   ar
    32    17    39    1
    33    18    19   ar
    34    18    20   ar
    35    18    21    1
    36    20    41    1
    37    21    24   ar
    38    21    25   ar
    39    22    26    1
    40    22    27   ar
    41    22    28   ar
    42    23    29    1
    43    24    27   ar
    44    24    42    1
    45    25    28   ar
    46    25    43    1
    47    26    44    1
    48    26    45    1
    49    27    46    1
    50    28    47    1
    51    29    49    1
    52    29    50    1
    53    29    51    1
    54    30    31    1
    55    30    52    1
    56    30    53    1
    57    31    32   ar
    58    32    54    1
