@<TRIPOS>MOLECULE
42613186
 89 91 0 0 0
SMALL
GASTEIGER

@<TRIPOS>ATOM
      1 O           1.4340    0.6724   -0.3770 O.3     1  UNL1       -0.3410
      2 O          -1.3828    1.2394   -0.4227 O.3     1  UNL1       -0.3328
      3 O           3.4856    1.2810   -1.3402 O.3     1  UNL1       -0.3459
      4 O          -0.4371   -1.4013   -2.7360 O.3     1  UNL1       -0.3865
      5 O           2.5305    2.8158    0.9739 O.3     1  UNL1       -0.3851
      6 O           6.7859    2.0287    0.1040 O.3     1  UNL1       -0.3849
      7 O          -3.2901    2.4392   -1.1297 O.2     1  UNL1       -0.4653
      8 O           1.7723   -3.9543    1.4296 O.2     1  UNL1       -0.2730
      9 O           1.7478   -6.3770    0.2983 O.3     1  UNL1       -0.3825
     10 O          -8.6614   -0.0017    1.5671 O.3     1  UNL1       -0.3938
     11 N           0.8256   -2.9345   -0.4279 N.am    1  UNL1       -0.3077
     12 N          -2.1749   -2.3698   -0.5353 N.3     1  UNL1       -0.3250
     13 N           5.2554    0.4894    1.7839 N.3     1  UNL1       -0.3115
     14 N           0.3040    3.4535   -1.2554 N.3     1  UNL1       -0.3221
     15 N          -5.4990    1.6136    0.5974 N.3     1  UNL1       -0.3072
     16 N          -2.5259   -6.1663   -0.0338 N.3     1  UNL1       -0.3299
     17 C           1.0288   -0.5462   -1.0021 C.3     1  UNL1        0.1083
     18 C           0.8068   -1.5916    0.1018 C.3     1  UNL1        0.0535
     19 C          -0.2177   -0.2937   -1.8674 C.3     1  UNL1        0.1107
     20 C          -1.4872   -0.0467   -1.0372 C.3     1  UNL1        0.1061
     21 C          -1.7288   -1.1067    0.0539 C.3     1  UNL1        0.0358
     22 C          -0.4698   -1.3204    0.9121 C.3     1  UNL1       -0.0142
     23 C           2.8472    0.7134   -0.1960 C.3     1  UNL1        0.1870
     24 C           4.6697    1.7355    1.2650 C.3     1  UNL1        0.0692
     25 C           3.1555    1.5341    1.0644 C.3     1  UNL1        0.1239
     26 C           5.3693    2.1612   -0.0563 C.3     1  UNL1        0.1043
     27 C           4.9082    1.2754   -1.2225 C.3     1  UNL1        0.0808
     28 C          -1.8716    2.2653   -1.2863 C.3     1  UNL1        0.2172
     29 C           5.1086    3.6404   -0.3852 C.3     1  UNL1       -0.0323
     30 C          -1.1318    3.5850   -1.0268 C.3     1  UNL1        0.0717
     31 C           1.3128   -4.0124    0.2909 C.2     1  UNL1        0.2420
     32 C          -1.4023    4.0610    0.4035 C.3     1  UNL1       -0.0102
     33 C           1.1983   -5.3245   -0.4768 C.3     1  UNL1        0.1320
     34 C           5.0149    0.3678    3.2117 C.3     1  UNL1       -0.0154
     35 C          -3.6834    3.1380   -0.0023 C.2     1  UNL1        0.1110
     36 C          -2.8483    3.8780    0.7480 C.2     1  UNL1       -0.0434
     37 C          -0.2505   -5.6690   -0.8429 C.3     1  UNL1       -0.0059
     38 C          -5.1378    2.9943    0.3149 C.3     1  UNL1        0.0539
     39 C          -1.1669   -5.8253    0.3764 C.3     1  UNL1       -0.0041
     40 C          -6.9169    1.4986    0.9134 C.3     1  UNL1        0.0195
     41 C          -7.2771    0.0603    1.2496 C.3     1  UNL1        0.0567
     42 H           1.8218   -0.8966   -1.6793 H       1  UNL1        0.0642
     43 H           1.6320   -1.5320    0.8222 H       1  UNL1        0.0525
     44 H          -0.0083    0.5739   -2.5032 H       1  UNL1        0.0646
     45 H          -2.3686   -0.0599   -1.6952 H       1  UNL1        0.0640
     46 H          -2.5247   -0.7490    0.7198 H       1  UNL1        0.0485
     47 H          -0.3106   -0.4142    1.5124 H       1  UNL1        0.0300
     48 H          -0.6423   -2.1295    1.6341 H       1  UNL1        0.0300
     49 H           3.2442   -0.3001   -0.0501 H       1  UNL1        0.0937
     50 H           4.8540    2.5379    1.9932 H       1  UNL1        0.0517
     51 H           2.6768    1.0499    1.9216 H       1  UNL1        0.0661
     52 H           0.4405   -3.0829   -1.3555 H       1  UNL1        0.1491
     53 H           5.3258    1.6398   -2.1683 H       1  UNL1        0.0590
     54 H           5.2696    0.2448   -1.1149 H       1  UNL1        0.0590
     55 H          -3.0366   -2.2198   -1.0584 H       1  UNL1        0.1185
     56 H          -2.4016   -3.0310    0.2059 H       1  UNL1        0.1185
     57 H          -1.7130    1.9977   -2.3388 H       1  UNL1        0.1072
     58 H          -1.1952   -1.1842   -3.3049 H       1  UNL1        0.2100
     59 H           5.3947    4.2818    0.4560 H       1  UNL1        0.0258
     60 H           4.0663    3.8452   -0.6414 H       1  UNL1        0.0258
     61 H           5.7248    3.9604   -1.2342 H       1  UNL1        0.0258
     62 H           6.2632    0.5038    1.6267 H       1  UNL1        0.1221
     63 H          -1.5260    4.3424   -1.7182 H       1  UNL1        0.0523
     64 H           2.7030    3.2865    1.8072 H       1  UNL1        0.2101
     65 H           7.2062    2.2356   -0.7482 H       1  UNL1        0.2103
     66 H          -1.1315    5.1191    0.4995 H       1  UNL1        0.0325
     67 H          -0.7990    3.5045    1.1320 H       1  UNL1        0.0325
     68 H           1.8007   -5.2297   -1.3881 H       1  UNL1        0.0690
     69 H           5.5004   -0.5434    3.5768 H       1  UNL1        0.0388
     70 H           3.9538    0.2757    3.4576 H       1  UNL1        0.0388
     71 H           5.4409    1.2081    3.7704 H       1  UNL1        0.0388
     72 H          -3.2133    4.3853    1.6363 H       1  UNL1        0.0606
     73 H           0.7583    4.3558   -1.1215 H       1  UNL1        0.1187
     74 H           0.4752    3.1832   -2.2229 H       1  UNL1        0.1187
     75 H          -0.6645   -4.9141   -1.5212 H       1  UNL1        0.0307
     76 H          -0.2504   -6.6184   -1.3951 H       1  UNL1        0.0307
     77 H          -5.7146    3.3691   -0.5405 H       1  UNL1        0.0504
     78 H          -5.3982    3.6258    1.1738 H       1  UNL1        0.0504
     79 H           1.7907   -7.1669   -0.2673 H       1  UNL1        0.2104
     80 H          -1.1935   -4.9025    0.9641 H       1  UNL1        0.0423
     81 H          -0.7918   -6.6197    1.0301 H       1  UNL1        0.0423
     82 H          -5.2870    1.0300   -0.2121 H       1  UNL1        0.1224
     83 H          -2.9036   -5.4216   -0.6182 H       1  UNL1        0.1182
     84 H          -3.1247   -6.2147    0.7895 H       1  UNL1        0.1182
     85 H          -7.5341    1.8387    0.0721 H       1  UNL1        0.0446
     86 H          -7.1759    2.1355    1.7686 H       1  UNL1        0.0446
     87 H          -6.7074   -0.2969    2.1141 H       1  UNL1        0.0570
     88 H          -7.0865   -0.6037    0.3998 H       1  UNL1        0.0570
     89 H          -8.8643   -0.9291    1.7778 H       1  UNL1        0.2095
@<TRIPOS>BOND
     1     1    17    1
     2     1    23    1
     3     2    20    1
     4     2    28    1
     5     3    23    1
     6     3    27    1
     7     4    19    1
     8     4    58    1
     9     5    25    1
    10     5    64    1
    11     6    26    1
    12     6    65    1
    13     7    28    1
    14     7    35    1
    15     8    31    2
    16     9    33    1
    17     9    79    1
    18    10    41    1
    19    10    89    1
    20    11    18    1
    21    11    31   am
    22    11    52    1
    23    12    21    1
    24    12    55    1
    25    12    56    1
    26    13    24    1
    27    13    34    1
    28    13    62    1
    29    14    30    1
    30    14    73    1
    31    14    74    1
    32    15    38    1
    33    15    40    1
    34    15    82    1
    35    16    39    1
    36    16    83    1
    37    16    84    1
    38    17    18    1
    39    17    19    1
    40    17    42    1
    41    18    22    1
    42    18    43    1
    43    19    20    1
    44    19    44    1
    45    20    21    1
    46    20    45    1
    47    21    22    1
    48    21    46    1
    49    22    47    1
    50    22    48    1
    51    23    25    1
    52    23    49    1
    53    24    25    1
    54    24    26    1
    55    24    50    1
    56    25    51    1
    57    26    27    1
    58    26    29    1
    59    27    53    1
    60    27    54    1
    61    28    30    1
    62    28    57    1
    63    29    59    1
    64    29    60    1
    65    29    61    1
    66    30    32    1
    67    30    63    1
    68    31    33    1
    69    32    36    1
    70    32    66    1
    71    32    67    1
    72    33    37    1
    73    33    68    1
    74    34    69    1
    75    34    70    1
    76    34    71    1
    77    35    36    2
    78    35    38    1
    79    36    72    1
    80    37    39    1
    81    37    75    1
    82    37    76    1
    83    38    77    1
    84    38    78    1
    85    39    80    1
    86    39    81    1
    87    40    41    1
    88    40    85    1
    89    40    86    1
    90    41    87    1
    91    41    88    1
