@<TRIPOS>MOLECULE
9568512
 28 28 0 0 0
SMALL
GASTEIGER

@<TRIPOS>ATOM
      1 S          -6.6343    0.4925   -0.0051 S.2     1  UNL1       -0.0174
      2 O           4.8437    1.2404    0.0006 O.2     1  UNL1       -0.2758
      3 N           3.6408   -0.7873   -0.0009 N.am    1  UNL1       -0.2857
      4 N          -2.7458    0.0091    0.0019 N.2     1  UNL1       -0.1885
      5 N          -3.9751    0.5783    0.0002 N.am    1  UNL1       -0.2186
      6 N          -4.9359   -1.5516    0.0005 N.am    1  UNL1       -0.3394
      7 C           2.3062   -0.3803    0.0000 C.ar    1  UNL1        0.0334
      8 C          -0.3626    0.4322    0.0021 C.ar    1  UNL1       -0.0053
      9 C           1.9908    0.9784   -0.0004 C.ar    1  UNL1       -0.0399
     10 C           1.2873   -1.3327    0.0014 C.ar    1  UNL1       -0.0399
     11 C           0.6563    1.3847    0.0008 C.ar    1  UNL1       -0.0513
     12 C          -0.0472   -0.9266    0.0024 C.ar    1  UNL1       -0.0513
     13 C          -1.7539    0.8552    0.0022 C.2     1  UNL1        0.0528
     14 C           4.7898    0.0149   -0.0021 C.2     1  UNL1        0.2141
     15 C           6.0499   -0.8135   -0.0027 C.3     1  UNL1        0.0125
     16 C          -5.1100   -0.1938   -0.0009 C.2     1  UNL1        0.1473
     17 H           2.7237    1.7732   -0.0017 H       1  UNL1        0.0636
     18 H           1.5187   -2.3950    0.0017 H       1  UNL1        0.0636
     19 H           0.4251    2.4470    0.0003 H       1  UNL1        0.0624
     20 H          -0.8198   -1.6909    0.0033 H       1  UNL1        0.0624
     21 H           3.7876   -1.7946   -0.0007 H       1  UNL1        0.1548
     22 H          -1.9412    1.9454    0.0013 H       1  UNL1        0.0851
     23 H           6.0920   -1.4224    0.9047 H       1  UNL1        0.0323
     24 H           6.9247   -0.1580   -0.0321 H       1  UNL1        0.0323
     25 H           6.0658   -1.4647   -0.8812 H       1  UNL1        0.0323
     26 H          -4.0305    1.5919   -0.0011 H       1  UNL1        0.1762
     27 H          -4.0099   -1.9662    0.0030 H       1  UNL1        0.1440
     28 H          -5.7271   -2.1864   -0.0005 H       1  UNL1        0.1440
@<TRIPOS>BOND
     1     1    16    2
     2     2    14    2
     3     3     7    1
     4     3    14   am
     5     3    21    1
     6     4     5    1
     7     4    13    2
     8     5    16    1
     9     5    26    1
    10     6    16    1
    11     6    27    1
    12     6    28    1
    13     7     9   ar
    14     7    10   ar
    15     8    11   ar
    16     8    12   ar
    17     8    13    1
    18     9    11   ar
    19     9    17    1
    20    10    12   ar
    21    10    18    1
    22    11    19    1
    23    12    20    1
    24    13    22    1
    25    14    15    1
    26    15    23    1
    27    15    24    1
    28    15    25    1
