@<TRIPOS>MOLECULE
36119
 68 70 0 0 0
SMALL
GASTEIGER

@<TRIPOS>ATOM
      1 O          -0.9331   -0.4829    0.1286 O.3     1  UNL1       -0.3413
      2 O           1.8251   -0.3005   -0.5836 O.3     1  UNL1       -0.3328
      3 O          -2.5679    0.4890    1.5034 O.3     1  UNL1       -0.3459
      4 O           1.2296   -2.5802    2.1836 O.3     1  UNL1       -0.3865
      5 O          -2.0509    1.7140   -1.1147 O.3     1  UNL1       -0.3851
      6 O          -6.0019    1.6378    0.8522 O.3     1  UNL1       -0.3849
      7 O           3.9814    0.6426   -0.5063 O.2     1  UNL1       -0.4653
      8 N          -0.7102   -4.1495    0.4876 N.3     1  UNL1       -0.3250
      9 N           2.2363   -3.9579   -0.2750 N.3     1  UNL1       -0.3250
     10 N          -5.1731   -0.2176   -0.9930 N.3     1  UNL1       -0.3115
     11 N           1.9024    2.4756   -1.5733 N.3     1  UNL1       -0.3221
     12 N           6.7043    0.2279    0.3687 N.3     1  UNL1       -0.3237
     13 C          -0.5388   -1.6993    0.7674 C.3     1  UNL1        0.1051
     14 C           1.9405   -1.5350    0.1275 C.3     1  UNL1        0.1061
     15 C           0.9077   -1.5390    1.2669 C.3     1  UNL1        0.1105
     16 C          -0.7299   -2.8674   -0.2186 C.3     1  UNL1        0.0355
     17 C           1.7753   -2.7013   -0.8656 C.3     1  UNL1        0.0355
     18 C           0.3178   -2.8201   -1.3471 C.3     1  UNL1       -0.0175
     19 C          -2.3270   -0.2391    0.2990 C.3     1  UNL1        0.1870
     20 C          -4.3152    0.9551   -0.7606 C.3     1  UNL1        0.0692
     21 C          -2.8404    0.5389   -0.9210 C.3     1  UNL1        0.1239
     22 C          -4.5872    1.5634    0.6439 C.3     1  UNL1        0.1043
     23 C          -3.9606    0.6922    1.7418 C.3     1  UNL1        0.0808
     24 C           2.6416    0.7105    0.0025 C.3     1  UNL1        0.2172
     25 C          -4.0589    3.0034    0.7505 C.3     1  UNL1       -0.0323
     26 C           2.0136    2.1044   -0.1571 C.3     1  UNL1        0.0717
     27 C           2.8876    3.1274    0.5783 C.3     1  UNL1       -0.0102
     28 C          -4.9757   -0.7345   -2.3360 C.3     1  UNL1       -0.0154
     29 C           4.8024    1.6859   -0.1182 C.2     1  UNL1        0.1108
     30 C           4.3481    2.8375    0.4061 C.2     1  UNL1       -0.0434
     31 C           6.2573    1.4188   -0.3378 C.3     1  UNL1        0.0513
     32 H          -1.1681   -1.8649    1.6545 H       1  UNL1        0.0639
     33 H           2.9546   -1.6188    0.5460 H       1  UNL1        0.0640
     34 H           0.9605   -0.5964    1.8241 H       1  UNL1        0.0646
     35 H          -1.7113   -2.7857   -0.7008 H       1  UNL1        0.0485
     36 H           2.3993   -2.5028   -1.7458 H       1  UNL1        0.0485
     37 H           0.0953   -1.9534   -1.9848 H       1  UNL1        0.0297
     38 H           0.2064   -3.6961   -2.0003 H       1  UNL1        0.0297
     39 H          -2.8705   -1.1909    0.3571 H       1  UNL1        0.0937
     40 H          -4.5817    1.7163   -1.5064 H       1  UNL1        0.0517
     41 H          -2.6404   -0.0497   -1.8195 H       1  UNL1        0.0661
     42 H          -4.4668   -0.2765    1.8376 H       1  UNL1        0.0590
     43 H          -4.0679    1.1782    2.7186 H       1  UNL1        0.0590
     44 H          -0.8789   -4.9073   -0.1724 H       1  UNL1        0.1185
     45 H          -1.4717   -4.1806    1.1642 H       1  UNL1        0.1185
     46 H           2.0850   -4.7216   -0.9329 H       1  UNL1        0.1185
     47 H           1.6773   -4.1807    0.5476 H       1  UNL1        0.1185
     48 H           2.7103    0.5285    1.0854 H       1  UNL1        0.1072
     49 H           2.1248   -2.4088    2.5221 H       1  UNL1        0.2100
     50 H          -2.9680    3.0627    0.7323 H       1  UNL1        0.0258
     51 H          -4.4570    3.6244   -0.0600 H       1  UNL1        0.0258
     52 H          -4.4009    3.4663    1.6840 H       1  UNL1        0.0258
     53 H          -4.9905   -0.9497   -0.3095 H       1  UNL1        0.1221
     54 H           0.9995    2.1058    0.2584 H       1  UNL1        0.0523
     55 H          -2.3745    2.1570   -1.9176 H       1  UNL1        0.2101
     56 H          -6.3592    0.7362    0.7806 H       1  UNL1        0.2103
     57 H           2.6679    4.1476    0.2412 H       1  UNL1        0.0325
     58 H           2.6590    3.0980    1.6509 H       1  UNL1        0.0325
     59 H          -4.0923   -1.3743   -2.4187 H       1  UNL1        0.0388
     60 H          -4.9359    0.0554   -3.0937 H       1  UNL1        0.0388
     61 H          -5.8323   -1.3685   -2.5896 H       1  UNL1        0.0388
     62 H           5.0454    3.6126    0.7107 H       1  UNL1        0.0606
     63 H           1.5402    3.4250   -1.6520 H       1  UNL1        0.1187
     64 H           2.8247    2.4864   -2.0065 H       1  UNL1        0.1187
     65 H           6.4294    1.2783   -1.4111 H       1  UNL1        0.0502
     66 H           6.8734    2.2707   -0.0279 H       1  UNL1        0.0502
     67 H           7.6804    0.0456    0.1379 H       1  UNL1        0.1186
     68 H           6.6834    0.3990    1.3737 H       1  UNL1        0.1186
@<TRIPOS>BOND
     1     1    13    1
     2     1    19    1
     3     2    14    1
     4     2    24    1
     5     3    19    1
     6     3    23    1
     7     4    15    1
     8     4    49    1
     9     5    21    1
    10     5    55    1
    11     6    22    1
    12     6    56    1
    13     7    24    1
    14     7    29    1
    15     8    16    1
    16     8    44    1
    17     8    45    1
    18     9    17    1
    19     9    46    1
    20     9    47    1
    21    10    20    1
    22    10    28    1
    23    10    53    1
    24    11    26    1
    25    11    63    1
    26    11    64    1
    27    12    31    1
    28    12    67    1
    29    12    68    1
    30    13    15    1
    31    13    16    1
    32    13    32    1
    33    14    15    1
    34    14    17    1
    35    14    33    1
    36    15    34    1
    37    16    18    1
    38    16    35    1
    39    17    18    1
    40    17    36    1
    41    18    37    1
    42    18    38    1
    43    19    21    1
    44    19    39    1
    45    20    21    1
    46    20    22    1
    47    20    40    1
    48    21    41    1
    49    22    23    1
    50    22    25    1
    51    23    42    1
    52    23    43    1
    53    24    26    1
    54    24    48    1
    55    25    50    1
    56    25    51    1
    57    25    52    1
    58    26    27    1
    59    26    54    1
    60    27    30    1
    61    27    57    1
    62    27    58    1
    63    28    59    1
    64    28    60    1
    65    28    61    1
    66    29    30    2
    67    29    31    1
    68    30    62    1
    69    31    65    1
    70    31    66    1
