@<TRIPOS>MOLECULE
58076382
 80 83 0 0 0
SMALL
GASTEIGER

@<TRIPOS>ATOM
      1 S           3.1372   -2.6949    0.1747 S.3     1  UNL1       -0.1435
      2 O           0.3479   -1.6820   -0.3133 O.3     1  UNL1       -0.4602
      3 O          -1.6915    3.8384   -0.1142 O.3     1  UNL1       -0.3907
      4 O          -4.3202   -1.6485    2.4103 O.2     1  UNL1       -0.2971
      5 O           1.1739   -0.5499   -2.1421 O.2     1  UNL1       -0.2499
      6 O           3.1379   -0.3713    2.2884 O.3     1  UNL1       -0.3906
      7 N           6.9450    1.9921    0.4513 N.3     1  UNL1       -0.3272
      8 C          -3.6238    0.6294   -0.2301 C.3     1  UNL1       -0.0138
      9 C          -2.9847   -0.2388    0.8977 C.3     1  UNL1        0.0324
     10 C          -1.9808   -1.3386    0.4245 C.3     1  UNL1        0.0176
     11 C          -2.6712    1.7189   -0.8716 C.3     1  UNL1       -0.0107
     12 C          -2.6959   -2.2310   -0.6557 C.3     1  UNL1       -0.0344
     13 C          -4.2154   -0.3075   -1.3321 C.3     1  UNL1       -0.0461
     14 C          -4.7997    1.3103    0.5241 C.3     1  UNL1       -0.0397
     15 C          -0.6682   -0.6769   -0.1573 C.3     1  UNL1        0.1102
     16 C          -3.2602   -1.3922   -1.8162 C.3     1  UNL1       -0.0493
     17 C          -4.2405   -0.6860    1.6584 C.2     1  UNL1        0.1376
     18 C          -1.7068    2.4240    0.1512 C.3     1  UNL1        0.0672
     19 C          -5.4014    0.2464    1.4336 C.3     1  UNL1        0.0067
     20 C          -0.2190    1.9131    0.1771 C.3     1  UNL1        0.0152
     21 C          -0.0513    0.4519    0.6987 C.3     1  UNL1       -0.0039
     22 C          -1.5785   -2.2278    1.6367 C.3     1  UNL1       -0.0553
     23 C          -3.4688    2.7572   -1.6987 C.3     1  UNL1       -0.0595
     24 C          -1.8569   -3.3766   -1.2353 C.3     1  UNL1       -0.0618
     25 C           0.6126    2.8112    1.1314 C.3     1  UNL1       -0.0536
     26 C           0.4253    2.0460   -1.1867 C.2     1  UNL1       -0.0826
     27 C           1.2068   -1.4871   -1.3571 C.2     1  UNL1        0.3173
     28 C           1.7021    2.3931   -1.3805 C.2     1  UNL1       -0.1020
     29 C           2.1949   -2.6264   -1.3673 C.3     1  UNL1        0.0914
     30 C           3.9122   -1.0373    0.0948 C.3     1  UNL1        0.0318
     31 C           4.3115   -0.5636    1.4997 C.3     1  UNL1        0.0684
     32 C           5.1176   -1.0946   -0.8487 C.3     1  UNL1       -0.0373
     33 C           5.0717    0.7664    1.4419 C.3     1  UNL1       -0.0106
     34 C           5.8574    0.2425   -0.8952 C.3     1  UNL1       -0.0366
     35 C           6.2808    0.6904    0.5075 C.3     1  UNL1        0.0072
     36 H          -2.4976    0.3968    1.6423 H       1  UNL1        0.0389
     37 H          -2.0777    1.2061   -1.6264 H       1  UNL1        0.0329
     38 H          -3.5535   -2.7121   -0.1634 H       1  UNL1        0.0305
     39 H          -4.5652    0.2643   -2.1964 H       1  UNL1        0.0271
     40 H          -5.1127   -0.8185   -0.9622 H       1  UNL1        0.0271
     41 H          -5.5612    1.7139   -0.1520 H       1  UNL1        0.0275
     42 H          -4.4368    2.1418    1.1405 H       1  UNL1        0.0275
     43 H          -0.9000   -0.3019   -1.1494 H       1  UNL1        0.0740
     44 H          -3.8117   -2.0505   -2.5004 H       1  UNL1        0.0268
     45 H          -2.4590   -0.9520   -2.4183 H       1  UNL1        0.0268
     46 H          -2.1182    2.3567    1.1617 H       1  UNL1        0.0604
     47 H          -6.2165   -0.2953    0.9470 H       1  UNL1        0.0342
     48 H          -5.7431    0.6758    2.3784 H       1  UNL1        0.0342
     49 H          -0.4089    0.3969    1.7330 H       1  UNL1        0.0310
     50 H           1.0256    0.2586    0.7920 H       1  UNL1        0.0310
     51 H          -0.7136   -2.8649    1.4285 H       1  UNL1        0.0237
     52 H          -2.3816   -2.9117    1.9264 H       1  UNL1        0.0237
     53 H          -1.3239   -1.6179    2.5101 H       1  UNL1        0.0237
     54 H          -4.0429    3.4341   -1.0575 H       1  UNL1        0.0233
     55 H          -4.1686    2.2874   -2.3935 H       1  UNL1        0.0233
     56 H          -2.7950    3.3620   -2.3158 H       1  UNL1        0.0233
     57 H          -1.3832   -3.9777   -0.4550 H       1  UNL1        0.0233
     58 H          -2.4989   -4.0526   -1.8122 H       1  UNL1        0.0233
     59 H          -1.0874   -3.0156   -1.9225 H       1  UNL1        0.0233
     60 H           0.1004    2.8907    2.0993 H       1  UNL1        0.0239
     61 H           0.7350    3.8361    0.7604 H       1  UNL1        0.0239
     62 H           1.6042    2.4021    1.3597 H       1  UNL1        0.0239
     63 H          -0.1626    1.8498   -2.0776 H       1  UNL1        0.0573
     64 H          -1.2118    3.9912   -0.9452 H       1  UNL1        0.2098
     65 H           2.0803    2.4635   -2.3965 H       1  UNL1        0.0532
     66 H           2.4206    2.5934   -0.5977 H       1  UNL1        0.0532
     67 H           1.6468   -3.5635   -1.5084 H       1  UNL1        0.0490
     68 H           2.8660   -2.5156   -2.2233 H       1  UNL1        0.0490
     69 H           3.1807   -0.3221   -0.2926 H       1  UNL1        0.0437
     70 H           4.9363   -1.3160    1.9977 H       1  UNL1        0.0605
     71 H           4.8066   -1.3489   -1.8683 H       1  UNL1        0.0277
     72 H           5.8219   -1.8721   -0.5239 H       1  UNL1        0.0277
     73 H           5.3873    1.0455    2.4559 H       1  UNL1        0.0305
     74 H           4.3852    1.5621    1.1199 H       1  UNL1        0.0305
     75 H           5.2066    0.9984   -1.3546 H       1  UNL1        0.0281
     76 H           6.7375    0.1448   -1.5426 H       1  UNL1        0.0281
     77 H           6.9947   -0.0387    0.9112 H       1  UNL1        0.0459
     78 H           3.4222   -0.0795    3.1714 H       1  UNL1        0.2098
     79 H           7.7764    1.9277   -0.1345 H       1  UNL1        0.1185
     80 H           7.2675    2.2535    1.3821 H       1  UNL1        0.1185
@<TRIPOS>BOND
     1     1    29    1
     2     1    30    1
     3     2    15    1
     4     2    27    1
     5     3    18    1
     6     3    64    1
     7     4    17    2
     8     5    27    2
     9     6    31    1
    10     6    78    1
    11     7    35    1
    12     7    79    1
    13     7    80    1
    14     8     9    1
    15     8    11    1
    16     8    13    1
    17     8    14    1
    18     9    10    1
    19     9    17    1
    20     9    36    1
    21    10    12    1
    22    10    15    1
    23    10    22    1
    24    11    18    1
    25    11    23    1
    26    11    37    1
    27    12    16    1
    28    12    24    1
    29    12    38    1
    30    13    16    1
    31    13    39    1
    32    13    40    1
    33    14    19    1
    34    14    41    1
    35    14    42    1
    36    15    21    1
    37    15    43    1
    38    16    44    1
    39    16    45    1
    40    17    19    1
    41    18    20    1
    42    18    46    1
    43    19    47    1
    44    19    48    1
    45    20    21    1
    46    20    25    1
    47    20    26    1
    48    21    49    1
    49    21    50    1
    50    22    51    1
    51    22    52    1
    52    22    53    1
    53    23    54    1
    54    23    55    1
    55    23    56    1
    56    24    57    1
    57    24    58    1
    58    24    59    1
    59    25    60    1
    60    25    61    1
    61    25    62    1
    62    26    28    2
    63    26    63    1
    64    27    29    1
    65    28    65    1
    66    28    66    1
    67    29    67    1
    68    29    68    1
    69    30    31    1
    70    30    32    1
    71    30    69    1
    72    31    33    1
    73    31    70    1
    74    32    34    1
    75    32    71    1
    76    32    72    1
    77    33    35    1
    78    33    73    1
    79    33    74    1
    80    34    35    1
    81    34    75    1
    82    34    76    1
    83    35    77    1
