@<TRIPOS>MOLECULE
171758
 45 47 0 0 0
SMALL
GASTEIGER

@<TRIPOS>ATOM
      1 S          -0.8317    1.1481    0.9121 S.3     1  UNL1       -0.1246
      2 S           2.6823    3.6273   -0.9195 S.2     1  UNL1       -0.1048
      3 O          -0.3688   -2.9269    0.9002 O.3     1  UNL1       -0.3492
      4 O          -2.0381   -2.1486   -1.7511 O.2     1  UNL1       -0.2704
      5 O          -5.2014    1.3128   -0.9273 O.3     1  UNL1       -0.4793
      6 O          -5.0880   -0.7293    0.0790 O.2     1  UNL1       -0.2489
      7 O           2.0162   -1.3246    1.4950 O.2     1  UNL1       -0.2745
      8 O           4.3723   -2.2385   -0.5031 O.3     1  UNL1       -0.4799
      9 O           5.3028   -0.2546    0.0903 O.2     1  UNL1       -0.2498
     10 N          -2.4335   -0.7161    0.0825 N.am    1  UNL1       -0.2659
     11 N           0.6208   -1.0824   -0.3416 N.am    1  UNL1       -0.2770
     12 C          -1.3706   -0.5924    1.0844 C.3     1  UNL1        0.1285
     13 C          -0.5849   -1.6416    0.2858 C.3     1  UNL1        0.2418
     14 C          -3.0637    0.4854   -0.4260 C.3     1  UNL1        0.1381
     15 C          -2.5496    1.6715    0.4181 C.3     1  UNL1        0.0418
     16 C          -1.7884   -1.6481   -0.6779 C.2     1  UNL1        0.2709
     17 C          -3.3502    1.9346    1.7009 C.3     1  UNL1       -0.0484
     18 C          -2.4595    2.9514   -0.4150 C.3     1  UNL1       -0.0484
     19 C          -4.5416    0.2620   -0.3816 C.2     1  UNL1        0.3269
     20 C           1.8334   -0.9724    0.3310 C.2     1  UNL1        0.2338
     21 C          -0.1074   -3.9964    0.0036 C.3     1  UNL1        0.0396
     22 C           2.9358   -0.3505   -0.5246 C.3     1  UNL1        0.1576
     23 C           2.8990    1.1539   -0.3818 C.ar    1  UNL1       -0.0179
     24 C           4.3240   -0.9044   -0.2500 C.2     1  UNL1        0.3212
     25 C           3.1135    1.8107    0.8452 C.ar    1  UNL1       -0.0503
     26 C           2.6541    1.9918   -1.4259 C.ar    1  UNL1       -0.0199
     27 C           3.0234    3.1772    0.6971 C.ar    1  UNL1       -0.0240
     28 H          -1.6971   -0.8908    2.0849 H       1  UNL1        0.0668
     29 H          -2.7715    0.5821   -1.4804 H       1  UNL1        0.0631
     30 H          -2.8668    2.6956    2.3254 H       1  UNL1        0.0244
     31 H          -4.3544    2.3085    1.4723 H       1  UNL1        0.0244
     32 H          -3.4698    1.0302    2.3080 H       1  UNL1        0.0244
     33 H          -2.0065    3.7708    0.1555 H       1  UNL1        0.0244
     34 H          -1.8607    2.8057   -1.3217 H       1  UNL1        0.0244
     35 H          -3.4523    3.2892   -0.7305 H       1  UNL1        0.0244
     36 H           0.5771   -0.7495   -1.3019 H       1  UNL1        0.1520
     37 H           0.2924   -4.8343    0.5812 H       1  UNL1        0.0524
     38 H          -1.0342   -4.3238   -0.4749 H       1  UNL1        0.0524
     39 H           0.6310   -3.7178   -0.7537 H       1  UNL1        0.0524
     40 H           2.7360   -0.5982   -1.5778 H       1  UNL1        0.0559
     41 H          -6.1738    1.1856   -0.9067 H       1  UNL1        0.2951
     42 H           3.3229    1.3329    1.7937 H       1  UNL1        0.0626
     43 H           2.4580    1.7454   -2.4602 H       1  UNL1        0.0696
     44 H           3.1411    3.9328    1.4610 H       1  UNL1        0.0693
     45 H           5.2710   -2.6050   -0.3604 H       1  UNL1        0.2951
@<TRIPOS>BOND
     1     1    12    1
     2     1    15    1
     3     2    26   ar
     4     2    27   ar
     5     3    13    1
     6     3    21    1
     7     4    16    2
     8     5    19    1
     9     5    41    1
    10     6    19    2
    11     7    20    2
    12     8    24    1
    13     8    45    1
    14     9    24    2
    15    10    12    1
    16    10    14    1
    17    10    16   am
    18    11    13    1
    19    11    20   am
    20    11    36    1
    21    12    13    1
    22    12    28    1
    23    13    16    1
    24    14    15    1
    25    14    19    1
    26    14    29    1
    27    15    17    1
    28    15    18    1
    29    17    30    1
    30    17    31    1
    31    17    32    1
    32    18    33    1
    33    18    34    1
    34    18    35    1
    35    20    22    1
    36    21    37    1
    37    21    38    1
    38    21    39    1
    39    22    23    1
    40    22    24    1
    41    22    40    1
    42    23    25   ar
    43    23    26   ar
    44    25    27   ar
    45    25    42    1
    46    26    43    1
    47    27    44    1
