@<TRIPOS>MOLECULE
444022
 70 74 0 0 0
SMALL
GASTEIGER

@<TRIPOS>ATOM
      1 S          -6.1117    1.9850    1.0571 S.O2    1  UNL1       -0.0042
      2 S           2.7266    0.3004    1.0009 S.3     1  UNL1       -0.1273
      3 O          -5.7682    3.3867    1.1951 O.2     1  UNL1       -0.1720
      4 O          -6.9754    1.3402    2.0287 O.2     1  UNL1       -0.1720
      5 O          -7.7002   -1.4478   -1.0428 O.2     1  UNL1       -0.2754
      6 O          -3.4222   -1.8207   -0.3558 O.3     1  UNL1       -0.4260
      7 O          -3.8437   -0.3203   -2.0618 O.2     1  UNL1       -0.2486
      8 O          -1.1456   -1.8321   -1.1249 O.3     1  UNL1       -0.4260
      9 O           2.8519   -3.5383   -1.1579 O.2     1  UNL1       -0.2734
     10 O          -0.6769   -2.7442    0.9457 O.2     1  UNL1       -0.2486
     11 O           6.1063   -0.6950    1.9104 O.2     1  UNL1       -0.2737
     12 N          -6.1589    0.3170   -0.7743 N.am    1  UNL1       -0.2633
     13 N           1.9343   -2.1153    0.4862 N.am    1  UNL1       -0.2708
     14 N           5.0228   -1.5084    0.0286 N.am    1  UNL1       -0.3002
     15 N           8.2866   -0.0314    0.3490 N.3     1  UNL1       -0.3163
     16 C          -4.5631    0.9869    0.8828 C.3     1  UNL1        0.1130
     17 C          -6.7060    1.6712   -0.5976 C.3     1  UNL1        0.1535
     18 C          -5.0503   -0.1881    0.0130 C.3     1  UNL1        0.1491
     19 C          -8.0930    1.0665   -0.8448 C.3     1  UNL1        0.0629
     20 C          -7.3662   -0.2879   -0.9565 C.2     1  UNL1        0.2211
     21 C          -4.0824    0.5218    2.2579 C.3     1  UNL1       -0.0379
     22 C          -3.4811    1.8500    0.2153 C.3     1  UNL1       -0.0379
     23 C           2.8647   -1.4754    1.4209 C.3     1  UNL1        0.1005
     24 C          -4.0478   -0.7584   -0.9378 C.2     1  UNL1        0.3328
     25 C           0.9117   -1.3098   -0.1500 C.3     1  UNL1        0.1382
     26 C           0.9424    0.0852    0.5108 C.3     1  UNL1        0.0417
     27 C           3.9912   -2.2619    0.7368 C.3     1  UNL1        0.1277
     28 C           2.8866   -2.8401   -0.1702 C.2     1  UNL1        0.2402
     29 C           0.5645    1.1827   -0.4855 C.3     1  UNL1       -0.0484
     30 C           0.0863    0.2084    1.7786 C.3     1  UNL1       -0.0484
     31 C          -0.3802   -2.0515   -0.0182 C.2     1  UNL1        0.3319
     32 C          -2.4257   -2.4843   -1.1510 C.3     1  UNL1        0.2389
     33 C           6.0127   -0.7743    0.6865 C.2     1  UNL1        0.2350
     34 C           6.9587   -0.0581   -0.2711 C.3     1  UNL1        0.1079
     35 C           6.4469    1.3293   -0.5989 C.ar    1  UNL1       -0.0219
     36 C           5.5985    1.5200   -1.6896 C.ar    1  UNL1       -0.0566
     37 C           6.8236    2.4163    0.1901 C.ar    1  UNL1       -0.0566
     38 C           5.1270    2.7976   -1.9915 C.ar    1  UNL1       -0.0614
     39 C           6.3518    3.6938   -0.1118 C.ar    1  UNL1       -0.0614
     40 C           5.5035    3.8844   -1.2025 C.ar    1  UNL1       -0.0617
     41 H          -6.3368    2.3753   -1.3485 H       1  UNL1        0.0750
     42 H          -5.4594   -0.9990    0.6299 H       1  UNL1        0.0639
     43 H          -8.8028    1.1274   -0.0167 H       1  UNL1        0.0393
     44 H          -8.5764    1.3812   -1.7736 H       1  UNL1        0.0393
     45 H          -3.1968   -0.1145    2.1706 H       1  UNL1        0.0251
     46 H          -4.8507   -0.0581    2.7806 H       1  UNL1        0.0251
     47 H          -3.8302    1.3752    2.8967 H       1  UNL1        0.0251
     48 H          -3.2234    2.7133    0.8390 H       1  UNL1        0.0251
     49 H          -2.5624    1.2786    0.0602 H       1  UNL1        0.0251
     50 H          -3.8091    2.2375   -0.7550 H       1  UNL1        0.0251
     51 H           2.6640   -1.7347    2.4644 H       1  UNL1        0.0640
     52 H           1.1782   -1.2512   -1.2145 H       1  UNL1        0.0631
     53 H           4.4360   -3.0352    1.3754 H       1  UNL1        0.0622
     54 H          -0.4559    1.0378   -0.8543 H       1  UNL1        0.0244
     55 H           1.2247    1.1820   -1.3609 H       1  UNL1        0.0244
     56 H           0.6134    2.1783   -0.0298 H       1  UNL1        0.0244
     57 H           0.3213   -0.5649    2.5182 H       1  UNL1        0.0244
     58 H          -0.9767    0.1180    1.5375 H       1  UNL1        0.0244
     59 H           0.2207    1.1841    2.2606 H       1  UNL1        0.0244
     60 H           5.0298   -1.5055   -0.9887 H       1  UNL1        0.1496
     61 H          -2.7503   -2.5534   -2.1957 H       1  UNL1        0.1168
     62 H          -2.3339   -3.5148   -0.7883 H       1  UNL1        0.1168
     63 H           7.0490   -0.6390   -1.1975 H       1  UNL1        0.0605
     64 H           8.6050   -0.9864    0.5115 H       1  UNL1        0.1192
     65 H           8.9572    0.3775   -0.3016 H       1  UNL1        0.1192
     66 H           5.2964    0.6819   -2.3118 H       1  UNL1        0.0621
     67 H           7.4684    2.2998    1.0565 H       1  UNL1        0.0621
     68 H           4.4655    2.9458   -2.8400 H       1  UNL1        0.0618
     69 H           6.6413    4.5397    0.5049 H       1  UNL1        0.0618
     70 H           5.1350    4.8789   -1.4366 H       1  UNL1        0.0618
@<TRIPOS>BOND
     1     1     3    2
     2     1     4    2
     3     1    16    1
     4     1    17    1
     5     2    23    1
     6     2    26    1
     7     5    20    2
     8     6    24    1
     9     6    32    1
    10     7    24    2
    11     8    31    1
    12     8    32    1
    13     9    28    2
    14    10    31    2
    15    11    33    2
    16    12    17    1
    17    12    18    1
    18    12    20   am
    19    13    23    1
    20    13    25    1
    21    13    28   am
    22    14    27    1
    23    14    33   am
    24    14    60    1
    25    15    34    1
    26    15    64    1
    27    15    65    1
    28    16    18    1
    29    16    21    1
    30    16    22    1
    31    17    19    1
    32    17    41    1
    33    18    24    1
    34    18    42    1
    35    19    20    1
    36    19    43    1
    37    19    44    1
    38    21    45    1
    39    21    46    1
    40    21    47    1
    41    22    48    1
    42    22    49    1
    43    22    50    1
    44    23    27    1
    45    23    51    1
    46    25    26    1
    47    25    31    1
    48    25    52    1
    49    26    29    1
    50    26    30    1
    51    27    28    1
    52    27    53    1
    53    29    54    1
    54    29    55    1
    55    29    56    1
    56    30    57    1
    57    30    58    1
    58    30    59    1
    59    32    61    1
    60    32    62    1
    61    33    34    1
    62    34    35    1
    63    34    63    1
    64    35    36   ar
    65    35    37   ar
    66    36    38   ar
    67    36    66    1
    68    37    39   ar
    69    37    67    1
    70    38    40   ar
    71    38    68    1
    72    39    40   ar
    73    39    69    1
    74    40    70    1
