@<TRIPOS>MOLECULE
4967
 24 24 0 0 0
SMALL
GASTEIGER

@<TRIPOS>ATOM
      1 S          -2.4228    2.4456    0.3516 S.3     1  UNL1       -0.1235
      2 N           0.9491   -1.7151   -0.0018 N.ar    1  UNL1       -0.2598
      3 N          -3.7275    0.2460   -0.2706 N.2     1  UNL1       -0.2925
      4 C           2.3363    0.1419   -0.6981 C.3     1  UNL1       -0.0106
      5 C           3.0857    0.6948    0.5218 C.3     1  UNL1       -0.0505
      6 C           0.9962   -0.4061   -0.3366 C.ar    1  UNL1        0.0419
      7 C          -0.1090    0.4295   -0.3569 C.ar    1  UNL1       -0.0307
      8 C           4.4635    1.2203    0.1516 C.3     1  UNL1       -0.0649
      9 C          -1.3416   -0.1132   -0.0114 C.ar    1  UNL1        0.0090
     10 C          -1.4303   -1.4559    0.3390 C.ar    1  UNL1       -0.0339
     11 C          -0.2661   -2.2072    0.3280 C.ar    1  UNL1        0.0285
     12 C          -2.5336    0.7194   -0.0167 C.2     1  UNL1        0.0923
     13 H           2.9330   -0.6548   -1.1611 H       1  UNL1        0.0328
     14 H           2.2321    0.9223   -1.4625 H       1  UNL1        0.0328
     15 H           2.5050    1.5032    0.9828 H       1  UNL1        0.0266
     16 H           3.1933   -0.0895    1.2811 H       1  UNL1        0.0266
     17 H           0.0081    1.4658   -0.6550 H       1  UNL1        0.0642
     18 H           5.0835    0.4263   -0.2769 H       1  UNL1        0.0230
     19 H           4.3894    2.0315   -0.5797 H       1  UNL1        0.0230
     20 H           4.9730    1.6080    1.0393 H       1  UNL1        0.0230
     21 H          -2.3702   -1.9188    0.6202 H       1  UNL1        0.0639
     22 H          -0.2811   -3.2588    0.5946 H       1  UNL1        0.0830
     23 H          -3.7203    2.7569    0.2255 H       1  UNL1        0.1086
     24 H          -4.4142    1.0040   -0.2131 H       1  UNL1        0.1873
@<TRIPOS>BOND
     1     1    12    1
     2     1    23    1
     3     2     6   ar
     4     2    11   ar
     5     3    12    2
     6     3    24    1
     7     4     5    1
     8     4     6    1
     9     4    13    1
    10     4    14    1
    11     5     8    1
    12     5    15    1
    13     5    16    1
    14     6     7   ar
    15     7     9   ar
    16     7    17    1
    17     8    18    1
    18     8    19    1
    19     8    20    1
    20     9    10   ar
    21     9    12    1
    22    10    11   ar
    23    10    21    1
    24    11    22    1
