@<TRIPOS>MOLECULE
9863827
 48 51 0 0 0
SMALL
GASTEIGER

@<TRIPOS>ATOM
      1 O          -3.5566   -2.6665   -0.3351 O.2     1  UNL1       -0.2863
      2 O          -5.8873   -1.7741    0.4565 O.3     1  UNL1       -0.4770
      3 O          -6.3301    0.3190   -0.3515 O.2     1  UNL1       -0.2449
      4 N          -2.2407    1.1414    0.2891 N.ar    1  UNL1       -0.3424
      5 N           4.4920   -0.3132    1.3179 N.ar    1  UNL1       -0.2397
      6 N           6.5422    0.2113    0.2462 N.pl3   1  UNL1       -0.3319
      7 C          -1.9177    2.5685    0.5239 C.3     1  UNL1        0.0347
      8 C          -1.6248    3.4817   -0.6180 C.3     1  UNL1       -0.0302
      9 C          -2.8933    3.6386    0.1681 C.3     1  UNL1       -0.0302
     10 C          -1.2722    0.1115    0.1186 C.ar    1  UNL1        0.0565
     11 C          -3.5852    0.8284    0.2386 C.ar    1  UNL1        0.0231
     12 C          -1.6997   -1.2162   -0.0997 C.ar    1  UNL1        0.0463
     13 C           0.1100    0.3579    0.1578 C.ar    1  UNL1       -0.0185
     14 C          -4.0957   -0.3928    0.0380 C.ar    1  UNL1        0.1220
     15 C          -3.1531   -1.5252   -0.1489 C.ar    1  UNL1        0.2034
     16 C           1.0304   -0.6797   -0.0141 C.ar    1  UNL1       -0.0115
     17 C          -0.7765   -2.2550   -0.2722 C.ar    1  UNL1       -0.0483
     18 C           0.7007    1.7183    0.3817 C.3     1  UNL1       -0.0372
     19 C           0.5882   -1.9821   -0.2286 C.ar    1  UNL1       -0.0529
     20 C           2.4623   -0.4433    0.0234 C.ar    1  UNL1        0.0009
     21 C          -5.5516   -0.5438    0.0143 C.2     1  UNL1        0.3420
     22 C           3.1609   -0.1338   -1.1335 C.ar    1  UNL1       -0.0464
     23 C           3.1604   -0.5216    1.2130 C.ar    1  UNL1        0.0374
     24 C           4.5320    0.0875   -1.0660 C.ar    1  UNL1       -0.0102
     25 C           5.1449   -0.0133    0.1726 C.ar    1  UNL1        0.1214
     26 C           5.2863    0.4202   -2.3082 C.3     1  UNL1       -0.0364
     27 C           7.3740   -0.4235    1.2160 C.3     1  UNL1       -0.0011
     28 H          -1.5008    2.7362    1.5111 H       1  UNL1        0.0528
     29 H          -1.7034    3.0937   -1.6264 H       1  UNL1        0.0286
     30 H          -0.8705    4.2484   -0.4890 H       1  UNL1        0.0286
     31 H          -2.9662    4.4944    0.8310 H       1  UNL1        0.0286
     32 H          -3.7976    3.4673   -0.4014 H       1  UNL1        0.0286
     33 H          -4.2653    1.6467    0.4378 H       1  UNL1        0.0819
     34 H          -1.1016   -3.2780   -0.4405 H       1  UNL1        0.0625
     35 H           0.3772    2.1425    1.3325 H       1  UNL1        0.0278
     36 H           1.7879    1.7533    0.4813 H       1  UNL1        0.0278
     37 H           0.5104    2.3612   -0.4769 H       1  UNL1        0.0278
     38 H           1.2925   -2.7998   -0.3643 H       1  UNL1        0.0624
     39 H           2.6407   -0.0630   -2.0861 H       1  UNL1        0.0628
     40 H           2.6675   -0.7594    2.1512 H       1  UNL1        0.0836
     41 H          -6.8583   -1.9139    0.4554 H       1  UNL1        0.2954
     42 H           4.6524    0.3474   -3.1988 H       1  UNL1        0.0279
     43 H           5.6688    1.4450   -2.2612 H       1  UNL1        0.0279
     44 H           6.1212   -0.2736   -2.4536 H       1  UNL1        0.0279
     45 H           6.9491    0.8937   -0.3825 H       1  UNL1        0.1471
     46 H           7.2928   -1.5135    1.1531 H       1  UNL1        0.0426
     47 H           7.1139   -0.1071    2.2312 H       1  UNL1        0.0426
     48 H           8.4210   -0.1562    1.0424 H       1  UNL1        0.0426
@<TRIPOS>BOND
     1     1    15    2
     2     2    21    1
     3     2    41    1
     4     3    21    2
     5     4     7    1
     6     4    10   ar
     7     4    11   ar
     8     5    23   ar
     9     5    25   ar
    10     6    25    1
    11     6    27    1
    12     6    45    1
    13     7     8    1
    14     7     9    1
    15     7    28    1
    16     8     9    1
    17     8    29    1
    18     8    30    1
    19     9    31    1
    20     9    32    1
    21    10    12   ar
    22    10    13   ar
    23    11    14   ar
    24    11    33    1
    25    12    15   ar
    26    12    17   ar
    27    13    16   ar
    28    13    18    1
    29    14    15   ar
    30    14    21    1
    31    16    19   ar
    32    16    20    1
    33    17    19   ar
    34    17    34    1
    35    18    35    1
    36    18    36    1
    37    18    37    1
    38    19    38    1
    39    20    22   ar
    40    20    23   ar
    41    22    24   ar
    42    22    39    1
    43    23    40    1
    44    24    25   ar
    45    24    26    1
    46    26    42    1
    47    26    43    1
    48    26    44    1
    49    27    46    1
    50    27    47    1
    51    27    48    1
