@<TRIPOS>MOLECULE
11284169
 79 82 0 0 0
SMALL
GASTEIGER

@<TRIPOS>ATOM
      1 S           6.3868    2.4932   -0.2616 S.2     1  UNL1       -0.0723
      2 O           1.2316   -4.7970   -1.2830 O.3     1  UNL1       -0.3649
      3 O           0.9975   -1.1841    0.7293 O.3     1  UNL1       -0.4564
      4 O          -5.0771   -0.2773   -2.0407 O.3     1  UNL1       -0.3908
      5 O          -1.3310    1.8890    3.0512 O.3     1  UNL1       -0.3903
      6 O          -3.7511    1.5282    1.5435 O.2     1  UNL1       -0.2964
      7 O           1.2174   -0.3751    2.8841 O.2     1  UNL1       -0.2507
      8 N           4.4679    1.9018   -1.8806 N.ar    1  UNL1       -0.2443
      9 C           0.1230   -4.3042   -0.5159 C.3     1  UNL1        0.0933
     10 C           1.5632   -4.0412   -0.1091 C.3     1  UNL1        0.0918
     11 C          -0.7467   -3.3373   -1.2593 C.3     1  UNL1       -0.0215
     12 C           2.3571   -2.8064   -0.4170 C.3     1  UNL1        0.0177
     13 C          -0.5766   -5.4323    0.1734 C.3     1  UNL1       -0.0334
     14 C          -1.9612   -2.9341   -0.4161 C.3     1  UNL1       -0.0501
     15 C          -2.7831   -1.8272   -1.0905 C.3     1  UNL1       -0.0480
     16 C           2.3093   -1.7894    0.7346 C.3     1  UNL1        0.1305
     17 C          -3.8956   -1.2595   -0.1764 C.3     1  UNL1       -0.0171
     18 C          -4.5551    0.0290   -0.7450 C.3     1  UNL1        0.0676
     19 C          -3.6145    1.2613   -0.8405 C.3     1  UNL1        0.0477
     20 C          -1.6432    2.3115    0.6463 C.3     1  UNL1        0.0501
     21 C           3.3709   -0.7232    0.5460 C.ar    1  UNL1       -0.0051
     22 C          -4.9790   -2.3222    0.0711 C.3     1  UNL1       -0.0601
     23 C          -3.0530    1.6637    0.5318 C.2     1  UNL1        0.1472
     24 C          -0.8127    1.5818    1.7544 C.3     1  UNL1        0.0771
     25 C          -4.3453    2.4752   -1.4249 C.3     1  UNL1       -0.0231
     26 C          -0.7880    0.0572    1.5983 C.3     1  UNL1        0.0718
     27 C           0.5884   -0.5118    1.8441 C.2     1  UNL1        0.3102
     28 C          -0.8298    2.2857   -0.6622 C.3     1  UNL1       -0.0507
     29 C          -1.8581    3.7894    1.0341 C.3     1  UNL1       -0.0507
     30 C           3.3626    0.0589   -0.6112 C.ar    1  UNL1       -0.0285
     31 C           4.3398   -0.5338    1.5235 C.ar    1  UNL1       -0.0539
     32 C          -5.4182    2.9513   -0.4994 C.2     1  UNL1       -0.0904
     33 C           4.3494    1.0528   -0.7898 C.ar    1  UNL1        0.0788
     34 C           5.3275    0.4427    1.3716 C.ar    1  UNL1       -0.0455
     35 C           5.3149    1.2264    0.2066 C.ar    1  UNL1        0.0392
     36 C          -6.7106    3.0288   -0.8360 C.2     1  UNL1       -0.1026
     37 C           5.4987    2.6962   -1.7093 C.ar    1  UNL1        0.0764
     38 C           5.9239    3.7323   -2.6755 C.3     1  UNL1       -0.0159
     39 H           1.9702   -4.5870    0.7339 H       1  UNL1        0.0626
     40 H          -1.0935   -3.8017   -2.1907 H       1  UNL1        0.0294
     41 H          -0.1860   -2.4423   -1.5452 H       1  UNL1        0.0294
     42 H           2.0073   -2.3570   -1.3531 H       1  UNL1        0.0330
     43 H           3.3946   -3.1222   -0.5879 H       1  UNL1        0.0330
     44 H           0.1182   -6.2280    0.4669 H       1  UNL1        0.0258
     45 H          -1.0691   -5.0851    1.0874 H       1  UNL1        0.0258
     46 H          -1.3285   -5.8865   -0.4808 H       1  UNL1        0.0258
     47 H          -1.6282   -2.6004    0.5731 H       1  UNL1        0.0266
     48 H          -2.6054   -3.8056   -0.2585 H       1  UNL1        0.0266
     49 H          -2.0980   -1.0249   -1.3807 H       1  UNL1        0.0269
     50 H          -3.2158   -2.2201   -2.0187 H       1  UNL1        0.0269
     51 H           2.4502   -2.3156    1.6880 H       1  UNL1        0.0786
     52 H          -3.4606   -1.0198    0.8000 H       1  UNL1        0.0323
     53 H          -5.4145    0.2717   -0.1090 H       1  UNL1        0.0603
     54 H          -2.8034    1.0068   -1.5244 H       1  UNL1        0.0406
     55 H          -5.7964   -1.9111    0.6735 H       1  UNL1        0.0233
     56 H          -5.4030   -2.6913   -0.8686 H       1  UNL1        0.0233
     57 H          -4.5777   -3.1784    0.6217 H       1  UNL1        0.0233
     58 H           0.2084    1.9848    1.7376 H       1  UNL1        0.0608
     59 H          -4.7496    2.2384   -2.4162 H       1  UNL1        0.0315
     60 H          -3.6420    3.3021   -1.5756 H       1  UNL1        0.0315
     61 H          -1.0792   -0.2269    0.5855 H       1  UNL1        0.0403
     62 H          -1.4775   -0.4427    2.2878 H       1  UNL1        0.0403
     63 H          -1.3323    2.8357   -1.4644 H       1  UNL1        0.0240
     64 H           0.1514    2.7546   -0.5218 H       1  UNL1        0.0240
     65 H          -0.6515    1.2674   -1.0216 H       1  UNL1        0.0240
     66 H          -0.9030    4.2893    1.2304 H       1  UNL1        0.0240
     67 H          -2.3635    4.3390    0.2322 H       1  UNL1        0.0240
     68 H          -2.4822    3.8928    1.9287 H       1  UNL1        0.0240
     69 H          -4.3325   -0.3279   -2.6635 H       1  UNL1        0.2098
     70 H           2.6020   -0.0748   -1.3751 H       1  UNL1        0.0643
     71 H           4.3440   -1.1438    2.4237 H       1  UNL1        0.0622
     72 H          -5.1353    3.3403    0.4745 H       1  UNL1        0.0567
     73 H          -0.7581    1.4539    3.7057 H       1  UNL1        0.2098
     74 H           6.0822    0.5864    2.1388 H       1  UNL1        0.0629
     75 H          -7.4384    3.4236   -0.1355 H       1  UNL1        0.0532
     76 H          -7.0647    2.7002   -1.8068 H       1  UNL1        0.0532
     77 H           6.9410    3.5426   -3.0335 H       1  UNL1        0.0298
     78 H           5.2606    3.7405   -3.5466 H       1  UNL1        0.0298
     79 H           5.8916    4.7288   -2.2232 H       1  UNL1        0.0298
@<TRIPOS>BOND
     1     1    35   ar
     2     1    37   ar
     3     2     9    1
     4     2    10    1
     5     3    16    1
     6     3    27    1
     7     4    18    1
     8     4    69    1
     9     5    24    1
    10     5    73    1
    11     6    23    2
    12     7    27    2
    13     8    33   ar
    14     8    37   ar
    15     9    10    1
    16     9    11    1
    17     9    13    1
    18    10    12    1
    19    10    39    1
    20    11    14    1
    21    11    40    1
    22    11    41    1
    23    12    16    1
    24    12    42    1
    25    12    43    1
    26    13    44    1
    27    13    45    1
    28    13    46    1
    29    14    15    1
    30    14    47    1
    31    14    48    1
    32    15    17    1
    33    15    49    1
    34    15    50    1
    35    16    21    1
    36    16    51    1
    37    17    18    1
    38    17    22    1
    39    17    52    1
    40    18    19    1
    41    18    53    1
    42    19    23    1
    43    19    25    1
    44    19    54    1
    45    20    23    1
    46    20    24    1
    47    20    28    1
    48    20    29    1
    49    21    30   ar
    50    21    31   ar
    51    22    55    1
    52    22    56    1
    53    22    57    1
    54    24    26    1
    55    24    58    1
    56    25    32    1
    57    25    59    1
    58    25    60    1
    59    26    27    1
    60    26    61    1
    61    26    62    1
    62    28    63    1
    63    28    64    1
    64    28    65    1
    65    29    66    1
    66    29    67    1
    67    29    68    1
    68    30    33   ar
    69    30    70    1
    70    31    34   ar
    71    31    71    1
    72    32    36    2
    73    32    72    1
    74    33    35   ar
    75    34    35   ar
    76    34    74    1
    77    36    75    1
    78    36    76    1
    79    37    38    1
    80    38    77    1
    81    38    78    1
    82    38    79    1
