@<TRIPOS>MOLECULE
4410
 47 50 0 0 0
SMALL
GASTEIGER

@<TRIPOS>ATOM
      1 F           1.7089    2.8973    0.3434 F       1  UNL1       -0.2035
      2 O           6.7862   -0.6324   -0.2047 O.3     1  UNL1       -0.3917
      3 O          -3.2953    2.4223    0.2117 O.2     1  UNL1       -0.2863
      4 O          -5.5873    1.4101   -0.5860 O.3     1  UNL1       -0.4770
      5 O          -5.9717   -0.6486    0.3330 O.2     1  UNL1       -0.2449
      6 N           2.7411    0.3786    0.0432 N.pl3   1  UNL1       -0.3273
      7 N          -1.8448   -1.3681   -0.1965 N.ar    1  UNL1       -0.3426
      8 C           0.4733   -0.5128   -0.1133 C.ar    1  UNL1        0.0007
      9 C          -1.3311   -2.7495   -0.2213 C.3     1  UNL1        0.0320
     10 C           1.0453   -1.8939   -0.2910 C.3     1  UNL1       -0.0220
     11 C           0.0225   -2.8210   -0.9329 C.3     1  UNL1       -0.0282
     12 C          -0.9209   -0.3040   -0.0749 C.ar    1  UNL1        0.0581
     13 C           1.3538    0.5695    0.0407 C.ar    1  UNL1        0.0706
     14 C           3.5212    1.0697   -0.9938 C.3     1  UNL1        0.0146
     15 C           3.4300    0.1149    1.3122 C.3     1  UNL1        0.0146
     16 C           4.8403    0.3447   -1.2441 C.3     1  UNL1       -0.0110
     17 C           4.7525   -0.6065    1.0641 C.3     1  UNL1       -0.0110
     18 C           5.6172    0.1366    0.0521 C.3     1  UNL1        0.0581
     19 C          -1.3913    1.0197    0.0746 C.ar    1  UNL1        0.0491
     20 C           0.8664    1.8641    0.2011 C.ar    1  UNL1        0.1454
     21 C          -1.2828   -3.3174    1.2002 C.3     1  UNL1       -0.0442
     22 C          -3.2009   -1.0919   -0.1848 C.ar    1  UNL1        0.0231
     23 C          -0.5053    2.0943    0.2124 C.ar    1  UNL1       -0.0118
     24 C          -2.8538    1.2869    0.0860 C.ar    1  UNL1        0.2035
     25 C          -3.7569    0.1186   -0.0620 C.ar    1  UNL1        0.1220
     26 C          -5.2165    0.2192   -0.0694 C.2     1  UNL1        0.3420
     27 H          -2.0241   -3.3758   -0.7997 H       1  UNL1        0.0525
     28 H           1.9285   -1.8723   -0.9402 H       1  UNL1        0.0315
     29 H           1.3574   -2.2837    0.6846 H       1  UNL1        0.0315
     30 H          -0.1139   -2.5326   -1.9843 H       1  UNL1        0.0288
     31 H           0.4029   -3.8493   -0.9349 H       1  UNL1        0.0288
     32 H           3.7260    2.1022   -0.6861 H       1  UNL1        0.0464
     33 H           2.9611    1.1077   -1.9365 H       1  UNL1        0.0464
     34 H           2.8077   -0.5065    1.9674 H       1  UNL1        0.0464
     35 H           3.6088    1.0628    1.8344 H       1  UNL1        0.0464
     36 H           4.6470   -0.6287   -1.7148 H       1  UNL1        0.0305
     37 H           5.4515    0.9060   -1.9607 H       1  UNL1        0.0305
     38 H           5.2965   -0.7267    2.0086 H       1  UNL1        0.0305
     39 H           4.5571   -1.6246    0.7012 H       1  UNL1        0.0305
     40 H           5.9315    1.1057    0.4571 H       1  UNL1        0.0594
     41 H          -0.8765   -4.3341    1.1987 H       1  UNL1        0.0250
     42 H          -0.6711   -2.7047    1.8703 H       1  UNL1        0.0250
     43 H          -2.2887   -3.3603    1.6326 H       1  UNL1        0.0250
     44 H          -3.8077   -1.9865   -0.2865 H       1  UNL1        0.0819
     45 H          -0.8648    3.1124    0.3323 H       1  UNL1        0.0654
     46 H           7.2571   -0.7417    0.6391 H       1  UNL1        0.2098
     47 H          -6.5625    1.5151   -0.6074 H       1  UNL1        0.2954
@<TRIPOS>BOND
     1     1    20    1
     2     2    18    1
     3     2    46    1
     4     3    24    2
     5     4    26    1
     6     4    47    1
     7     5    26    2
     8     6    13    1
     9     6    14    1
    10     6    15    1
    11     7     9    1
    12     7    12   ar
    13     7    22   ar
    14     8    10    1
    15     8    12   ar
    16     8    13   ar
    17     9    11    1
    18     9    21    1
    19     9    27    1
    20    10    11    1
    21    10    28    1
    22    10    29    1
    23    11    30    1
    24    11    31    1
    25    12    19   ar
    26    13    20   ar
    27    14    16    1
    28    14    32    1
    29    14    33    1
    30    15    17    1
    31    15    34    1
    32    15    35    1
    33    16    18    1
    34    16    36    1
    35    16    37    1
    36    17    18    1
    37    17    38    1
    38    17    39    1
    39    18    40    1
    40    19    23   ar
    41    19    24   ar
    42    20    23   ar
    43    21    41    1
    44    21    42    1
    45    21    43    1
    46    22    25   ar
    47    22    44    1
    48    23    45    1
    49    24    25   ar
    50    25    26    1
