@<TRIPOS>MOLECULE
62858
 34 34 0 0 0
SMALL
GASTEIGER

@<TRIPOS>ATOM
      1 O           0.2154   -0.3955    2.0109 O.3     1  UNL1       -0.3853
      2 O           0.6943    2.5897   -1.0503 O.3     1  UNL1       -0.3931
      3 O           3.1323   -1.0771   -1.2686 O.2     1  UNL1       -0.2735
      4 O          -6.4572    0.3869   -0.1061 O.co2   1  UNL1       -0.5760
      5 O          -5.9293   -1.6337   -0.7823 O.2     1  UNL1        0.0414
      6 N           2.1919    0.4422    0.2119 N.am    1  UNL1       -0.3057
      7 N          -5.6098   -0.5159   -0.3098 N.pl3   1  UNL1        0.0796
      8 N           5.6115   -0.6828   -0.3502 N.2     1  UNL1        0.0857
      9 N           6.7653   -0.4989    0.0824 N.2     1  UNL1       -0.0143
     10 N           7.8233   -0.3336    0.4754 N.2     1  UNL1       -0.3282
     11 CA          0.8224    0.2863   -0.2401 C.3     1  UNL1        0.0762
     12 C          -0.1419    0.4938    0.9477 C.3     1  UNL1        0.1006
     13 C          -1.5919    0.2255    0.6144 C.ar    1  UNL1       -0.0169
     14 C           0.5683    1.2242   -1.4261 C.3     1  UNL1        0.0653
     15 C          -2.5318    1.2177    0.8367 C.ar    1  UNL1       -0.0497
     16 C          -1.9504   -1.0064    0.0933 C.ar    1  UNL1       -0.0497
     17 C           3.2383   -0.2653   -0.3530 C.2     1  UNL1        0.2418
     18 C          -3.8698    0.9706    0.5289 C.ar    1  UNL1        0.0159
     19 C          -3.2883   -1.2533   -0.2146 C.ar    1  UNL1        0.0159
     20 C          -4.2480   -0.2649    0.0032 C.ar    1  UNL1        0.2732
     21 C           4.5554    0.0907    0.2964 C.3     1  UNL1        0.1942
     22 HA          0.7354   -0.7448   -0.6040 H       1  UNL1        0.0550
     23 H          -0.0263    1.5101    1.3447 H       1  UNL1        0.0663
     24 H1          1.2892    1.0315   -2.2285 H       1  UNL1        0.0576
     25 H2         -0.4354    1.0728   -1.8359 H       1  UNL1        0.0576
     26 H           2.3904    1.1467    0.9170 H       1  UNL1        0.1492
     27 H          -2.2492    2.1837    1.2447 H       1  UNL1        0.0623
     28 H          -1.2200   -1.7927   -0.0709 H       1  UNL1        0.0623
     29 H           1.1498   -0.2333    2.2255 H       1  UNL1        0.2103
     30 H          -4.5899    1.7641    0.7117 H       1  UNL1        0.0685
     31 H          -3.5468   -2.2283   -0.6199 H       1  UNL1        0.0685
     32 H           0.5196    3.1220   -1.8452 H       1  UNL1        0.2095
     33 H           4.4997   -0.1476    1.3649 H       1  UNL1        0.0676
     34 H           4.7332    1.1653    0.1735 H       1  UNL1        0.0676
@<TRIPOS>BOND
     1     1    12    1
     2     1    29    1
     3     2    14    1
     4     2    32    1
     5     3    17    2
     6     4     7    1
     7     5     7    2
     8     6    11    1
     9     6    17   am
    10     6    26    1
    11     7    20    1
    12     8     9    2
    13     8    21    1
    14     9    10    2
    15    11    12    1
    16    11    14    1
    17    11    22    1
    18    12    13    1
    19    12    23    1
    20    13    15   ar
    21    13    16   ar
    22    14    24    1
    23    14    25    1
    24    15    18   ar
    25    15    27    1
    26    16    19   ar
    27    16    28    1
    28    17    21    1
    29    18    20   ar
    30    18    30    1
    31    19    20   ar
    32    19    31    1
    33    21    33    1
    34    21    34    1
