@<TRIPOS>MOLECULE
71807
 45 47 0 0 0
SMALL
GASTEIGER

@<TRIPOS>ATOM
      1 CL         -3.3256   -2.9241   -2.1484 Cl      1  UNL1       -0.0820
      2 CL         -3.3192   -3.9922    0.9065 Cl      1  UNL1       -0.0820
      3 S           1.2643   -0.5541    1.1770 S.3     1  UNL1       -0.1273
      4 O           2.4705    1.9296   -2.2291 O.2     1  UNL1       -0.2734
      5 O           5.6086   -1.3720   -0.1817 O.3     1  UNL1       -0.4793
      6 OXT         4.8252   -0.0549    1.5057 O.2     1  UNL1       -0.2489
      7 O          -1.1283    3.2110    1.1298 O.2     1  UNL1       -0.2726
      8 O          -3.5850    2.5731    0.2860 O.3     1  UNL1       -0.3659
      9 N           2.9888    0.8862   -0.1778 N.am    1  UNL1       -0.2708
     10 N          -0.0865    1.7343   -0.3278 N.am    1  UNL1       -0.2993
     11 C           2.0560    1.0807    0.9332 C.3     1  UNL1        0.1005
     12 C           2.2989   -1.4052   -0.1151 C.3     1  UNL1        0.0417
     13 CA          3.4653   -0.4498   -0.4532 C.3     1  UNL1        0.1379
     14 CA          1.2974    2.0702    0.0336 C.3     1  UNL1        0.1278
     15 C           2.3335    1.7068   -1.0478 C.2     1  UNL1        0.2402
     16 C           2.7494   -2.7679    0.4212 C.3     1  UNL1       -0.0484
     17 C           1.4041   -1.6262   -1.3463 C.3     1  UNL1       -0.0484
     18 C           4.6808   -0.5831    0.4132 C.2     1  UNL1        0.3269
     19 C          -1.1952    2.3437    0.2612 C.2     1  UNL1        0.2471
     20 C          -2.5184    1.8400   -0.2981 C.3     1  UNL1        0.1589
     21 C          -2.7217    0.3709   -0.0117 C.ar    1  UNL1       -0.0086
     22 C          -2.9083   -0.5067   -1.0674 C.ar    1  UNL1       -0.0359
     23 C          -2.7173   -0.0708    1.3013 C.ar    1  UNL1       -0.0542
     24 C          -4.8438    2.1752   -0.2416 C.3     1  UNL1        0.0379
     25 C          -3.0953   -1.8634   -0.8027 C.ar    1  UNL1        0.0596
     26 C          -2.9046   -1.4275    1.5659 C.ar    1  UNL1       -0.0416
     27 C          -3.0935   -2.3239    0.5140 C.ar    1  UNL1        0.0593
     28 H           2.5223    1.5145    1.8222 H       1  UNL1        0.0640
     29 HA          3.7553   -0.5070   -1.5089 H       1  UNL1        0.0631
     30 HA          1.3979    3.1170    0.3468 H       1  UNL1        0.0622
     31 H           1.8937   -3.4270    0.6111 H       1  UNL1        0.0244
     32 H           3.3936   -3.2761   -0.3055 H       1  UNL1        0.0244
     33 H           3.3088   -2.6826    1.3594 H       1  UNL1        0.0244
     34 H           1.9631   -2.1420   -2.1362 H       1  UNL1        0.0244
     35 H           0.5335   -2.2492   -1.1079 H       1  UNL1        0.0244
     36 H           1.0359   -0.6901   -1.7763 H       1  UNL1        0.0244
     37 H          -0.2590    1.0401   -1.0506 H       1  UNL1        0.1496
     38 H          -2.5018    2.0423   -1.3778 H       1  UNL1        0.0744
     39 H           6.4129   -1.4722    0.3708 H       1  UNL1        0.2951
     40 H          -2.9083   -0.1422   -2.0916 H       1  UNL1        0.0636
     41 H          -2.5741    0.6165    2.1301 H       1  UNL1        0.0622
     42 H          -5.5799    2.9271    0.0587 H       1  UNL1        0.0524
     43 H          -5.1742    1.2188    0.1737 H       1  UNL1        0.0524
     44 H          -4.8294    2.1399   -1.3359 H       1  UNL1        0.0524
     45 H          -2.9003   -1.7688    2.5981 H       1  UNL1        0.0633
@<TRIPOS>BOND
     1     1    25    1
     2     2    27    1
     3     3    11    1
     4     3    12    1
     5     4    15    2
     6     5    18    1
     7     5    39    1
     8     6    18    2
     9     7    19    2
    10     8    20    1
    11     8    24    1
    12     9    11    1
    13     9    13    1
    14     9    15   am
    15    10    14    1
    16    10    19   am
    17    10    37    1
    18    11    14    1
    19    11    28    1
    20    12    13    1
    21    12    16    1
    22    12    17    1
    23    13    18    1
    24    13    29    1
    25    14    15    1
    26    14    30    1
    27    16    31    1
    28    16    32    1
    29    16    33    1
    30    17    34    1
    31    17    35    1
    32    17    36    1
    33    19    20    1
    34    20    21    1
    35    20    38    1
    36    21    22   ar
    37    21    23   ar
    38    22    25   ar
    39    22    40    1
    40    23    26   ar
    41    23    41    1
    42    24    42    1
    43    24    43    1
    44    24    44    1
    45    25    27   ar
    46    26    27   ar
    47    26    45    1
