@<TRIPOS>MOLECULE
20055036
 45 47 0 0 0
SMALL
GASTEIGER

@<TRIPOS>ATOM
      1 S          -1.5260    1.3227    0.6352 S.3     1  UNL1       -0.1273
      2 S           4.0938   -1.6318   -0.2337 S.O2    1  UNL1        0.0955
      3 O          -2.3604   -2.5948   -1.2003 O.2     1  UNL1       -0.2734
      4 O          -5.7857    0.0791   -1.4836 O.3     1  UNL1       -0.4793
      5 OXT        -5.6281   -0.7216    0.6447 O.2     1  UNL1       -0.2489
      6 O           1.7316   -1.5796    1.6338 O.2     1  UNL1       -0.2732
      7 O           3.4259   -3.1191   -0.2589 O.3     1  UNL1       -0.2531
      8 O           4.6130   -1.3740    1.0959 O.2     1  UNL1       -0.1463
      9 O           4.9165   -1.4688   -1.4174 O.2     1  UNL1       -0.1463
     10 N          -2.9136   -0.8394    0.2772 N.am    1  UNL1       -0.2708
     11 N           0.2367   -1.1021   -0.0742 N.am    1  UNL1       -0.2998
     12 C          -1.8725   -0.3823    1.2025 C.3     1  UNL1        0.1005
     13 C          -3.2899    1.5365    0.0763 C.3     1  UNL1        0.0417
     14 CA         -3.6700    0.1439   -0.4713 C.3     1  UNL1        0.1379
     15 CA         -0.9757   -1.4936    0.6401 C.3     1  UNL1        0.1277
     16 C          -2.1691   -1.8434   -0.2711 C.2     1  UNL1        0.2402
     17 C          -3.3382    2.5999   -1.0222 C.3     1  UNL1       -0.0484
     18 C          -4.1167    1.9924    1.2863 C.3     1  UNL1       -0.0484
     19 C          -5.1149   -0.2205   -0.3446 C.2     1  UNL1        0.3269
     20 C           1.5108   -1.1794    0.4928 C.2     1  UNL1        0.2450
     21 C           2.6009   -0.7093   -0.4511 C.3     1  UNL1        0.2038
     22 C           2.9498    0.7493   -0.2821 C.ar    1  UNL1       -0.0122
     23 C           3.4065    1.4882   -1.3736 C.ar    1  UNL1       -0.0562
     24 C           2.8151    1.3588    0.9655 C.ar    1  UNL1       -0.0562
     25 C           3.7288    2.8363   -1.2175 C.ar    1  UNL1       -0.0614
     26 C           3.1373    2.7069    1.1214 C.ar    1  UNL1       -0.0614
     27 C           3.5941    3.4456    0.0298 C.ar    1  UNL1       -0.0617
     28 H          -2.1620   -0.4849    2.2522 H       1  UNL1        0.0640
     29 HA         -3.3714    0.0342   -1.5231 H       1  UNL1        0.0631
     30 HA         -0.7823   -2.2995    1.3599 H       1  UNL1        0.0622
     31 H          -3.0007    3.5761   -0.6550 H       1  UNL1        0.0244
     32 H          -2.7119    2.3295   -1.8802 H       1  UNL1        0.0244
     33 H          -4.3617    2.7263   -1.3930 H       1  UNL1        0.0244
     34 H          -3.7339    2.9326    1.7012 H       1  UNL1        0.0244
     35 H          -5.1594    2.1747    1.0019 H       1  UNL1        0.0244
     36 H          -4.1214    1.2500    2.0921 H       1  UNL1        0.0244
     37 H           0.1611   -0.7379   -1.0212 H       1  UNL1        0.1496
     38 H           2.2766   -0.8972   -1.4828 H       1  UNL1        0.0710
     39 H          -6.7368   -0.1528   -1.4204 H       1  UNL1        0.2951
     40 H           3.5143    1.0266   -2.3514 H       1  UNL1        0.0621
     41 H           2.4770    0.8171    1.8426 H       1  UNL1        0.0621
     42 H           3.0867   -3.4171   -1.1356 H       1  UNL1        0.2445
     43 H           4.0842    3.4117   -2.0673 H       1  UNL1        0.0618
     44 H           3.0356    3.1812    2.0932 H       1  UNL1        0.0618
     45 H           3.8456    4.4952    0.1516 H       1  UNL1        0.0618
@<TRIPOS>BOND
     1     1    12    1
     2     1    13    1
     3     2     7    1
     4     2     8    2
     5     2     9    2
     6     2    21    1
     7     3    16    2
     8     4    19    1
     9     4    39    1
    10     5    19    2
    11     6    20    2
    12     7    42    1
    13    10    12    1
    14    10    14    1
    15    10    16   am
    16    11    15    1
    17    11    20   am
    18    11    37    1
    19    12    15    1
    20    12    28    1
    21    13    14    1
    22    13    17    1
    23    13    18    1
    24    14    19    1
    25    14    29    1
    26    15    16    1
    27    15    30    1
    28    17    31    1
    29    17    32    1
    30    17    33    1
    31    18    34    1
    32    18    35    1
    33    18    36    1
    34    20    21    1
    35    21    22    1
    36    21    38    1
    37    22    23   ar
    38    22    24   ar
    39    23    25   ar
    40    23    40    1
    41    24    26   ar
    42    24    41    1
    43    25    27   ar
    44    25    43    1
    45    26    27   ar
    46    26    44    1
    47    27    45    1
