@<TRIPOS>MOLECULE
71339
 42 45 0 0 0
SMALL
GASTEIGER

@<TRIPOS>ATOM
      1 S           1.3388   -0.3690   -1.5670 S.3     1  UNL1       -0.1156
      2 O          -3.6116    2.0957   -0.4796 O.2     1  UNL1       -0.2748
      3 O          -4.5812   -0.2814    2.0940 O.3     1  UNL1       -0.3912
      4 O          -0.5873    2.9139   -1.4953 O.co2   1  UNL1       -0.5433
      5 O           0.5562    2.6782    0.4721 O.co2   1  UNL1       -0.5433
      6 N          -1.9368    0.6263    0.2911 N.am    1  UNL1       -0.2642
      7 N           4.3862   -0.8110   -0.1288 N.ar    1  UNL1       -0.0924
      8 N           3.6537   -0.2848    0.9416 N.ar    1  UNL1       -0.1373
      9 N           5.6080    0.7287    0.9998 N.ar    1  UNL1       -0.1766
     10 C          -2.2184   -0.8215    0.3187 C.3     1  UNL1        0.0517
     11 C          -3.6667   -0.4358   -0.1223 C.3     1  UNL1        0.0811
     12 C          -1.0845   -1.4316   -0.5292 C.3     1  UNL1        0.0089
     13 C          -3.1658    1.0255   -0.1325 C.2     1  UNL1        0.2275
     14 C          -0.1823   -0.2358   -0.7780 C.2     1  UNL1        0.0137
     15 C          -0.7431    0.8898   -0.3172 C.2     1  UNL1        0.0687
     16 C          -4.8715   -0.6763    0.7518 C.3     1  UNL1        0.0653
     17 C          -1.5570   -2.1333   -1.7919 C.3     1  UNL1       -0.0561
     18 C           2.2006   -1.5019   -0.4144 C.3     1  UNL1        0.0942
     19 C          -5.3015   -2.1405    0.7589 C.3     1  UNL1       -0.0382
     20 C           3.6624   -1.7518   -0.9115 C.3     1  UNL1        0.1895
     21 C           2.3208   -0.8381    0.9917 C.3     1  UNL1        0.0982
     22 C          -0.2047    2.3005   -0.4611 C.2     1  UNL1        0.0867
     23 C           5.5844   -0.1812   -0.0876 C.ar    1  UNL1        0.2923
     24 C           4.4012    0.6354    1.5965 C.ar    1  UNL1        0.1575
     25 H          -2.1727   -1.2016    1.3494 H       1  UNL1        0.0519
     26 H          -3.8945   -0.7589   -1.1485 H       1  UNL1        0.0438
     27 H          -0.5576   -2.1631    0.0958 H       1  UNL1        0.0370
     28 H          -5.7110   -0.0637    0.4026 H       1  UNL1        0.0598
     29 H          -0.7267   -2.6283   -2.3060 H       1  UNL1        0.0236
     30 H          -2.3045   -2.8963   -1.5498 H       1  UNL1        0.0236
     31 H          -2.0161   -1.4314   -2.4968 H       1  UNL1        0.0236
     32 H           1.6475   -2.4447   -0.3774 H       1  UNL1        0.0498
     33 H          -4.5044   -2.7777    1.1578 H       1  UNL1        0.0255
     34 H          -6.1768   -2.2843    1.4010 H       1  UNL1        0.0255
     35 H          -5.5434   -2.4860   -0.2508 H       1  UNL1        0.0255
     36 H           3.9955   -2.7572   -0.6345 H       1  UNL1        0.1066
     37 H           3.8145   -1.5921   -1.9818 H       1  UNL1        0.1066
     38 H           1.6102   -0.0487    1.2366 H       1  UNL1        0.0561
     39 H           2.3307   -1.5983    1.7788 H       1  UNL1        0.0561
     40 H          -5.3866   -0.4201    2.6211 H       1  UNL1        0.2098
     41 H           6.4100   -0.3179   -0.7666 H       1  UNL1        0.1643
     42 H           4.0685    1.1995    2.4555 H       1  UNL1        0.1085
@<TRIPOS>BOND
     1     1    14    1
     2     1    18    1
     3     2    13    2
     4     3    16    1
     5     3    40    1
     6     4    22   ar
     7     5    22   ar
     8     6    10    1
     9     6    13   am
    10     6    15    1
    11     7     8   ar
    12     7    20    1
    13     7    23   ar
    14     8    21    1
    15     8    24   ar
    16     9    23   ar
    17     9    24   ar
    18    10    11    1
    19    10    12    1
    20    10    25    1
    21    11    13    1
    22    11    16    1
    23    11    26    1
    24    12    14    1
    25    12    17    1
    26    12    27    1
    27    14    15    2
    28    15    22    1
    29    16    19    1
    30    16    28    1
    31    17    29    1
    32    17    30    1
    33    17    31    1
    34    18    20    1
    35    18    21    1
    36    18    32    1
    37    19    33    1
    38    19    34    1
    39    19    35    1
    40    20    36    1
    41    20    37    1
    42    21    38    1
    43    21    39    1
    44    23    41    1
    45    24    42    1
