@<TRIPOS>MOLECULE
439318
 70 72 0 0 0
SMALL
GASTEIGER

@<TRIPOS>ATOM
      1 O          -1.2799   -0.3858   -0.5446 O.3     1  UNL1       -0.3422
      2 O           1.3559   -0.9279    0.4073 O.3     1  UNL1       -0.3413
      3 O           0.0970   -3.4720   -1.8820 O.3     1  UNL1       -0.3865
      4 O          -3.4485    0.4220   -1.0383 O.3     1  UNL1       -0.3425
      5 O           3.6415   -0.5317   -0.0744 O.3     1  UNL1       -0.3406
      6 O           1.7420   -0.0479    3.0086 O.3     1  UNL1       -0.3851
      7 O          -1.3437    3.9502   -0.5827 O.3     1  UNL1       -0.3874
      8 O          -3.1766    3.1102    1.4667 O.3     1  UNL1       -0.3866
      9 O           3.0856    3.0948   -0.4059 O.3     1  UNL1       -0.3875
     10 O           4.3851   -0.2739   -2.6859 O.3     1  UNL1       -0.3924
     11 N          -2.2622   -3.9179   -0.0954 N.3     1  UNL1       -0.3250
     12 N           0.5554   -4.4943    0.9193 N.3     1  UNL1       -0.3250
     13 N          -0.1306    1.7508   -2.0501 N.3     1  UNL1       -0.3211
     14 N           2.6822    2.6952    2.4386 N.3     1  UNL1       -0.3229
     15 N          -5.5703   -0.3834    0.6183 N.3     1  UNL1       -0.3276
     16 C          -1.2921   -1.7778   -0.8695 C.3     1  UNL1        0.1051
     17 C           1.0771   -2.2651   -0.0134 C.3     1  UNL1        0.1051
     18 C           0.1399   -2.2056   -1.2323 C.3     1  UNL1        0.1104
     19 C          -1.8947   -2.5617    0.3122 C.3     1  UNL1        0.0355
     20 C           0.4994   -3.0544    1.1768 C.3     1  UNL1        0.0355
     21 C          -0.9303   -2.5885    1.5119 C.3     1  UNL1       -0.0175
     22 C          -2.0812    0.3634   -1.4557 C.3     1  UNL1        0.1776
     23 C           2.6757   -0.8179    0.9375 C.3     1  UNL1        0.1874
     24 C          -1.5307    1.7846   -1.6256 C.3     1  UNL1        0.0853
     25 C           2.7244    0.2574    2.0251 C.3     1  UNL1        0.1234
     26 C          -1.6801    2.5852   -0.3273 C.3     1  UNL1        0.1033
     27 C           2.4894    1.6504    1.4260 C.3     1  UNL1        0.0647
     28 C          -3.1288    2.5214    0.1693 C.3     1  UNL1        0.1100
     29 C          -3.6336    1.0744    0.2227 C.3     1  UNL1        0.1022
     30 C           3.4569    1.8873    0.2546 C.3     1  UNL1        0.1012
     31 C           3.4145    0.7159   -0.7397 C.3     1  UNL1        0.1120
     32 C          -5.1224    0.9992    0.5500 C.3     1  UNL1        0.0222
     33 C           4.4836    0.8433   -1.8220 C.3     1  UNL1        0.0730
     34 H          -1.9379   -1.9685   -1.7383 H       1  UNL1        0.0639
     35 H           2.0093   -2.7426   -0.3502 H       1  UNL1        0.0639
     36 H           0.5543   -1.4838   -1.9477 H       1  UNL1        0.0646
     37 H          -2.8114   -2.0572    0.6411 H       1  UNL1        0.0485
     38 H           1.1071   -2.8690    2.0702 H       1  UNL1        0.0485
     39 H          -1.3481   -3.2074    2.3174 H       1  UNL1        0.0297
     40 H          -0.8718   -1.5730    1.9272 H       1  UNL1        0.0297
     41 H          -2.0688   -0.0964   -2.4529 H       1  UNL1        0.0927
     42 H           2.9733   -1.7640    1.4066 H       1  UNL1        0.0937
     43 H          -2.1073    2.2925   -2.4105 H       1  UNL1        0.0535
     44 H           3.7110    0.2380    2.5070 H       1  UNL1        0.0660
     45 H          -0.9929    2.2249    0.4478 H       1  UNL1        0.0637
     46 H           1.4507    1.7361    1.0821 H       1  UNL1        0.0512
     47 H          -3.7682    3.1248   -0.4864 H       1  UNL1        0.0646
     48 H          -3.0881    0.5209    0.9995 H       1  UNL1        0.0636
     49 H           4.4786    2.0072    0.6374 H       1  UNL1        0.0636
     50 H           2.4409    0.6671   -1.2423 H       1  UNL1        0.0646
     51 H          -2.9606   -3.8771   -0.8363 H       1  UNL1        0.1185
     52 H          -2.6991   -4.4048    0.6860 H       1  UNL1        0.1185
     53 H           0.2096   -5.0019    1.7324 H       1  UNL1        0.1185
     54 H           1.5243   -4.7825    0.7894 H       1  UNL1        0.1185
     55 H          -0.4479   -3.3758   -2.6815 H       1  UNL1        0.2100
     56 H          -5.3320    1.4893    1.5063 H       1  UNL1        0.0448
     57 H          -5.7042    1.5106   -0.2257 H       1  UNL1        0.0448
     58 H          -0.0536    1.2648   -2.9425 H       1  UNL1        0.1187
     59 H           0.2023    2.7011   -2.2072 H       1  UNL1        0.1187
     60 H           4.3512    1.7574   -2.4085 H       1  UNL1        0.0584
     61 H           5.4862    0.8372   -1.3816 H       1  UNL1        0.0584
     62 H           2.4764    3.6063    2.0308 H       1  UNL1        0.1186
     63 H           2.0156    2.5596    3.1976 H       1  UNL1        0.1186
     64 H           1.9533   -0.9241    3.3735 H       1  UNL1        0.2101
     65 H          -1.9419    4.2854   -1.2722 H       1  UNL1        0.2100
     66 H          -2.6362    2.5656    2.0642 H       1  UNL1        0.2100
     67 H           2.1871    2.9789   -0.7594 H       1  UNL1        0.2100
     68 H          -6.5792   -0.4077    0.7604 H       1  UNL1        0.1183
     69 H          -5.3942   -0.8464   -0.2725 H       1  UNL1        0.1183
     70 H           5.0748   -0.1741   -3.3640 H       1  UNL1        0.2095
@<TRIPOS>BOND
     1     1    16    1
     2     1    22    1
     3     2    17    1
     4     2    23    1
     5     3    18    1
     6     3    55    1
     7     4    22    1
     8     4    29    1
     9     5    23    1
    10     5    31    1
    11     6    25    1
    12     6    64    1
    13     7    26    1
    14     7    65    1
    15     8    28    1
    16     8    66    1
    17     9    30    1
    18     9    67    1
    19    10    33    1
    20    10    70    1
    21    11    19    1
    22    11    51    1
    23    11    52    1
    24    12    20    1
    25    12    53    1
    26    12    54    1
    27    13    24    1
    28    13    58    1
    29    13    59    1
    30    14    27    1
    31    14    62    1
    32    14    63    1
    33    15    32    1
    34    15    68    1
    35    15    69    1
    36    16    18    1
    37    16    19    1
    38    16    34    1
    39    17    18    1
    40    17    20    1
    41    17    35    1
    42    18    36    1
    43    19    21    1
    44    19    37    1
    45    20    21    1
    46    20    38    1
    47    21    39    1
    48    21    40    1
    49    22    24    1
    50    22    41    1
    51    23    25    1
    52    23    42    1
    53    24    26    1
    54    24    43    1
    55    25    27    1
    56    25    44    1
    57    26    28    1
    58    26    45    1
    59    27    30    1
    60    27    46    1
    61    28    29    1
    62    28    47    1
    63    29    32    1
    64    29    48    1
    65    30    31    1
    66    30    49    1
    67    31    33    1
    68    31    50    1
    69    32    56    1
    70    32    57    1
    71    33    60    1
    72    33    61    1
