@<TRIPOS>MOLECULE
92879
 48 50 0 0 0
SMALL
GASTEIGER

@<TRIPOS>ATOM
      1 S           2.1191   -0.1793   -2.0854 S.3     1  UNL1       -0.1273
      2 O           1.2814   -0.7808    2.1981 O.2     1  UNL1       -0.2734
      3 O           4.8885    2.0960    1.0223 O.3     1  UNL1       -0.4793
      4 OXT         5.0089   -0.0913    1.6526 O.2     1  UNL1       -0.2489
      5 O          -1.3559   -2.1977    1.3262 O.2     1  UNL1       -0.2717
      6 O          -3.4634   -0.6713    0.4189 O.3     1  UNL1       -0.4796
      7 N           2.7704   -0.7115    0.3683 N.am    1  UNL1       -0.2708
      8 N          -0.1460   -1.5750   -0.5531 N.am    1  UNL1       -0.2987
      9 C           2.4066   -1.4772   -0.8277 C.3     1  UNL1        0.1005
     10 C           3.3934    0.9245   -1.2936 C.3     1  UNL1        0.0417
     11 CA          3.2182    0.6581    0.2171 C.3     1  UNL1        0.1379
     12 CA          1.1774   -1.9759   -0.0554 C.3     1  UNL1        0.1278
     13 C           1.6967   -1.1109    1.1104 C.2     1  UNL1        0.2402
     14 C           4.7683    0.5357   -1.8537 C.3     1  UNL1       -0.0484
     15 C           3.0772    2.3799   -1.6434 C.3     1  UNL1       -0.0484
     16 C           4.4567    0.8112    1.0411 C.2     1  UNL1        0.3269
     17 C          -1.3152   -1.7234    0.1929 C.2     1  UNL1        0.2544
     18 C          -2.5571   -1.2126   -0.5276 C.3     1  UNL1        0.1751
     19 C          -3.2597   -2.3088   -1.3341 C.3     1  UNL1       -0.0099
     20 C          -3.7939   -3.4524   -0.4789 C.3     1  UNL1       -0.0615
     21 C          -3.7611    0.6630    0.3018 C.ar    1  UNL1        0.1216
     22 C          -2.7436    1.6044    0.3969 C.ar    1  UNL1       -0.0199
     23 C          -5.0767    1.0566    0.0900 C.ar    1  UNL1       -0.0199
     24 C          -3.0464    2.9608    0.2786 C.ar    1  UNL1       -0.0583
     25 C          -5.3794    2.4130   -0.0283 C.ar    1  UNL1       -0.0583
     26 C          -4.3643    3.3651    0.0659 C.ar    1  UNL1       -0.0615
     27 H           3.1503   -2.2359   -1.0877 H       1  UNL1        0.0640
     28 HA          2.4432    1.3017    0.6549 H       1  UNL1        0.0631
     29 HA          1.2101   -3.0488    0.1685 H       1  UNL1        0.0622
     30 H           5.0483   -0.4905   -1.5908 H       1  UNL1        0.0244
     31 H           4.7938    0.6202   -2.9468 H       1  UNL1        0.0244
     32 H           5.5541    1.1960   -1.4703 H       1  UNL1        0.0244
     33 H           3.1089    2.5486   -2.7263 H       1  UNL1        0.0244
     34 H           2.0838    2.6777   -1.2882 H       1  UNL1        0.0244
     35 H           3.8037    3.0626   -1.1902 H       1  UNL1        0.0244
     36 H          -0.2246   -1.1801   -1.4872 H       1  UNL1        0.1496
     37 H          -2.2433   -0.4445   -1.2487 H       1  UNL1        0.0831
     38 H           5.7018    2.2173    1.5571 H       1  UNL1        0.2951
     39 H          -4.1071   -1.8669   -1.8724 H       1  UNL1        0.0303
     40 H          -2.5718   -2.7186   -2.0829 H       1  UNL1        0.0303
     41 H          -4.3235   -4.1733   -1.1103 H       1  UNL1        0.0231
     42 H          -2.9841   -3.9877    0.0255 H       1  UNL1        0.0231
     43 H          -4.4968   -3.0922    0.2784 H       1  UNL1        0.0231
     44 H          -1.7145    1.3038    0.5723 H       1  UNL1        0.0654
     45 H          -5.8695    0.3178    0.0157 H       1  UNL1        0.0654
     46 H          -2.2564    3.7022    0.3542 H       1  UNL1        0.0619
     47 H          -6.4056    2.7279   -0.1940 H       1  UNL1        0.0619
     48 H          -4.6002    4.4213   -0.0258 H       1  UNL1        0.0618
@<TRIPOS>BOND
     1     1     9    1
     2     1    10    1
     3     2    13    2
     4     3    16    1
     5     3    38    1
     6     4    16    2
     7     5    17    2
     8     6    18    1
     9     6    21    1
    10     7     9    1
    11     7    11    1
    12     7    13   am
    13     8    12    1
    14     8    17   am
    15     8    36    1
    16     9    12    1
    17     9    27    1
    18    10    11    1
    19    10    14    1
    20    10    15    1
    21    11    16    1
    22    11    28    1
    23    12    13    1
    24    12    29    1
    25    14    30    1
    26    14    31    1
    27    14    32    1
    28    15    33    1
    29    15    34    1
    30    15    35    1
    31    17    18    1
    32    18    19    1
    33    18    37    1
    34    19    20    1
    35    19    39    1
    36    19    40    1
    37    20    41    1
    38    20    42    1
    39    20    43    1
    40    21    22   ar
    41    21    23   ar
    42    22    24   ar
    43    22    44    1
    44    23    25   ar
    45    23    45    1
    46    24    26   ar
    47    24    46    1
    48    25    26   ar
    49    25    47    1
    50    26    48    1
