@<TRIPOS>MOLECULE
71961
 61 63 0 0 0
SMALL
GASTEIGER

@<TRIPOS>ATOM
      1 S          -2.6050   -0.2132   -1.1411 S.3     1  UNL1       -0.1273
      2 O          -2.3532    2.5906    2.2482 O.2     1  UNL1       -0.2734
      3 O          -6.6831    1.4122    0.6564 O.3     1  UNL1       -0.4793
      4 OXT        -5.4911    3.2926    0.1674 O.2     1  UNL1       -0.2489
      5 O           0.9494    0.4798   -1.3191 O.2     1  UNL1       -0.2734
      6 O           3.5484    0.5229    1.6360 O.2     1  UNL1       -0.2741
      7 O          -1.2856   -5.8949   -0.3993 O.3     1  UNL1       -0.5068
      8 O           4.3615    1.9351   -1.1563 O.2     1  UNL1       -0.2758
      9 N          -3.1894    1.9711    0.1297 N.am    1  UNL1       -0.2708
     10 N          -0.2882    0.7650    0.6206 N.am    1  UNL1       -0.2999
     11 N           2.7438   -1.0494    0.1303 N.am    1  UNL1       -0.2990
     12 N           5.7248   -1.5982    0.7956 N.3     1  UNL1       -0.3196
     13 N           6.2728    3.0511   -0.4505 N.am    1  UNL1       -0.3183
     14 C          -2.2164    1.5567   -0.8853 C.3     1  UNL1        0.1005
     15 C          -4.4046    0.0881   -0.7668 C.3     1  UNL1        0.0417
     16 CA         -4.3714    1.1608    0.3431 C.3     1  UNL1        0.1379
     17 CA         -1.1139    1.8824    0.1317 C.3     1  UNL1        0.1277
     18 C          -2.2614    2.2754    1.0834 C.2     1  UNL1        0.2402
     19 C          -5.0330   -1.2135   -0.2658 C.3     1  UNL1       -0.0484
     20 C          -5.0883    0.5364   -2.0656 C.3     1  UNL1       -0.0484
     21 C          -5.5438    2.0886    0.3708 C.2     1  UNL1        0.3269
     22 C           0.6846    0.1554   -0.1629 C.2     1  UNL1        0.2385
     23 CA          1.3634   -1.0053    0.5528 C.3     1  UNL1        0.1250
     24 C           0.6536   -2.3145    0.2978 C.ar    1  UNL1       -0.0182
     25 C           3.7325   -0.2709    0.7158 C.2     1  UNL1        0.2311
     26 C           0.5108   -2.7653   -1.0042 C.ar    1  UNL1       -0.0529
     27 C           0.1605   -3.0385    1.3706 C.ar    1  UNL1       -0.0529
     28 CA          5.0993   -0.4909    0.0708 C.3     1  UNL1        0.0906
     29 C          -0.1437   -3.9744   -1.2398 C.ar    1  UNL1       -0.0199
     30 C          -0.4939   -4.2477    1.1349 C.ar    1  UNL1       -0.0199
     31 C           5.9977    0.7450    0.1789 C.3     1  UNL1        0.0476
     32 C          -0.6460   -4.7156   -0.1703 C.ar    1  UNL1        0.1169
     33 C           5.4320    1.9524   -0.5548 C.2     1  UNL1        0.2147
     34 C           5.9767    4.3307   -1.0529 C.3     1  UNL1        0.0001
     35 H          -2.2434    2.1844   -1.7806 H       1  UNL1        0.0640
     36 HA         -4.2782    0.7093    1.3401 H       1  UNL1        0.0631
     37 HA         -0.4941    2.7443   -0.1436 H       1  UNL1        0.0622
     38 H          -4.9724   -2.0056   -1.0214 H       1  UNL1        0.0244
     39 H          -6.0933   -1.0756   -0.0288 H       1  UNL1        0.0244
     40 H          -4.5405   -1.5805    0.6423 H       1  UNL1        0.0244
     41 H          -6.1665    0.6682   -1.9214 H       1  UNL1        0.0244
     42 H          -4.9672   -0.2099   -2.8600 H       1  UNL1        0.0244
     43 H          -4.6906    1.4877   -2.4368 H       1  UNL1        0.0244
     44 H          -0.4391    0.4089    1.5616 H       1  UNL1        0.1496
     45 HA          1.3659   -0.7889    1.6291 H       1  UNL1        0.0646
     46 H          -7.4651    2.0040    0.6783 H       1  UNL1        0.2951
     47 H           2.9941   -1.6535   -0.6475 H       1  UNL1        0.1498
     48 H           0.8988   -2.2051   -1.8496 H       1  UNL1        0.0622
     49 H           0.2722   -2.6848    2.3914 H       1  UNL1        0.0622
     50 HA          4.9706   -0.7667   -0.9822 H       1  UNL1        0.0559
     51 H          -0.2588   -4.3340   -2.2586 H       1  UNL1        0.0654
     52 H          -0.8811   -4.8153    1.9768 H       1  UNL1        0.0654
     53 H           6.9858    0.5281   -0.2471 H       1  UNL1        0.0378
     54 H           6.1445    1.0328    1.2285 H       1  UNL1        0.0378
     55 H1          6.6379   -1.7982    0.3883 H       1  UNL1        0.1189
     56 H2          5.9059   -1.3236    1.7609 H       1  UNL1        0.1189
     57 H          -1.5669   -6.2714    0.4521 H       1  UNL1        0.2921
     58 H           7.1282    2.9724    0.0916 H       1  UNL1        0.1484
     59 H           6.8939    4.7191   -1.5021 H       1  UNL1        0.0426
     60 H           5.1988    4.2375   -1.8144 H       1  UNL1        0.0426
     61 H           5.6420    5.0094   -0.2646 H       1  UNL1        0.0426
@<TRIPOS>BOND
     1     1    14    1
     2     1    15    1
     3     2    18    2
     4     3    21    1
     5     3    46    1
     6     4    21    2
     7     5    22    2
     8     6    25    2
     9     7    32    1
    10     7    57    1
    11     8    33    2
    12     9    14    1
    13     9    16    1
    14     9    18   am
    15    10    17    1
    16    10    22   am
    17    10    44    1
    18    11    23    1
    19    11    25   am
    20    11    47    1
    21    12    28    1
    22    12    55    1
    23    12    56    1
    24    13    33   am
    25    13    34    1
    26    13    58    1
    27    14    17    1
    28    14    35    1
    29    15    16    1
    30    15    19    1
    31    15    20    1
    32    16    21    1
    33    16    36    1
    34    17    18    1
    35    17    37    1
    36    19    38    1
    37    19    39    1
    38    19    40    1
    39    20    41    1
    40    20    42    1
    41    20    43    1
    42    22    23    1
    43    23    24    1
    44    23    45    1
    45    24    26   ar
    46    24    27   ar
    47    25    28    1
    48    26    29   ar
    49    26    48    1
    50    27    30   ar
    51    27    49    1
    52    28    31    1
    53    28    50    1
    54    29    32   ar
    55    29    51    1
    56    30    32   ar
    57    30    52    1
    58    31    33    1
    59    31    53    1
    60    31    54    1
    61    34    59    1
    62    34    60    1
    63    34    61    1
