@<TRIPOS>MOLECULE
127527
 71 74 0 0 0
SMALL
GASTEIGER

@<TRIPOS>ATOM
      1 S          -2.1462   -2.6126    1.5911 S.3     1  UNL1       -0.1285
      2 S          -4.7174    1.3646    0.7857 S.3     1  UNL1       -0.0801
      3 O          -0.0492   -4.5463   -1.2247 O.3     1  UNL1       -0.3492
      4 O          -0.2100   -1.6600   -2.5274 O.2     1  UNL1       -0.2701
      5 O           2.2422   -2.3424   -1.0340 O.2     1  UNL1       -0.2736
      6 O          -3.1813   -0.8417   -3.2790 O.3     1  UNL1       -0.4763
      7 O          -2.9613    1.0349   -1.9907 O.2     1  UNL1       -0.2437
      8 O           4.3697   -3.5463    0.9349 O.3     1  UNL1       -0.3897
      9 O           1.6767    0.7456    1.3234 O.2     1  UNL1       -0.2522
     10 O           5.6423    0.2324   -0.0295 O.2     1  UNL1       -0.2645
     11 O           7.1537    2.3707   -0.0763 O.2     1  UNL1       -0.2649
     12 N          -1.9613   -2.0063   -0.9871 N.am    1  UNL1       -0.2439
     13 N           0.5280   -2.8586    0.4381 N.am    1  UNL1       -0.2764
     14 N           3.3544   -0.7819    0.9444 N.am    1  UNL1       -0.2852
     15 N           3.7541    1.5227    0.5618 N.am    1  UNL1       -0.2167
     16 N           5.2726    3.7076   -0.4218 N.am    1  UNL1       -0.2925
     17 N          -6.4979    3.4532    1.1363 N.ar    1  UNL1       -0.2233
     18 N          -7.3925    1.7366    0.1586 N.ar    1  UNL1       -0.1015
     19 N          -7.7718    3.8017    0.9081 N.ar    1  UNL1       -0.0435
     20 N          -8.3139    2.7482    0.3096 N.ar    1  UNL1       -0.0222
     21 C          -0.4347   -3.3167   -0.5787 C.3     1  UNL1        0.2425
     22 C          -1.8992   -3.1631   -0.1125 C.3     1  UNL1        0.1322
     23 C          -0.7773   -2.2015   -1.6074 C.2     1  UNL1        0.2746
     24 C          -2.9962   -1.1273   -1.0037 C.2     1  UNL1        0.1229
     25 C          -3.9119   -1.0942   -0.0064 C.2     1  UNL1       -0.0211
     26 C          -3.8135   -1.9517    1.2533 C.3     1  UNL1        0.0197
     27 C           1.8006   -2.4056    0.1116 C.2     1  UNL1        0.2384
     28 C           2.5821   -1.9385    1.3356 C.3     1  UNL1        0.1264
     29 C          -5.1323   -0.2053    0.0081 C.3     1  UNL1        0.0253
     30 C          -3.0407   -0.1702   -2.1192 C.2     1  UNL1        0.3514
     31 C          -0.1485   -5.7138   -0.4232 C.3     1  UNL1        0.0396
     32 C           3.4510   -3.0644    1.9146 C.3     1  UNL1        0.0793
     33 C           4.2576   -2.6073    3.1240 C.3     1  UNL1       -0.0367
     34 C           2.8344    0.5081    0.9666 C.2     1  UNL1        0.3096
     35 C           3.3012    2.9037    0.7151 C.3     1  UNL1        0.0401
     36 C           3.8241    3.7581   -0.4184 C.3     1  UNL1        0.0314
     37 C           5.0857    1.3115    0.1453 C.2     1  UNL1        0.3091
     38 C          -6.2760    2.1944    0.6765 C.ar    1  UNL1        0.2094
     39 C           5.9391    2.5300   -0.1236 C.2     1  UNL1        0.3022
     40 C           5.9934    4.9017   -0.8300 C.3     1  UNL1        0.0123
     41 C           6.1666    4.9585   -2.3337 C.3     1  UNL1       -0.0493
     42 C          -5.5966    4.3718    1.7845 C.3     1  UNL1        0.0346
     43 H          -2.5695   -3.9680   -0.4362 H       1  UNL1        0.0672
     44 H           0.2679   -2.8902    1.4209 H       1  UNL1        0.1520
     45 H          -4.5168   -2.7885    1.1772 H       1  UNL1        0.0423
     46 H          -4.0901   -1.3656    2.1357 H       1  UNL1        0.0423
     47 H           1.8714   -1.6151    2.1068 H       1  UNL1        0.0621
     48 H          -5.9540   -0.6940    0.5444 H       1  UNL1        0.0427
     49 H          -5.4900   -0.0258   -1.0119 H       1  UNL1        0.0427
     50 H           0.2259   -6.5615   -1.0031 H       1  UNL1        0.0524
     51 H          -1.1900   -5.9096   -0.1550 H       1  UNL1        0.0524
     52 H           0.4596   -5.6151    0.4806 H       1  UNL1        0.0524
     53 H           2.8085   -3.9064    2.1979 H       1  UNL1        0.0614
     54 H           4.2744   -0.9442    0.5511 H       1  UNL1        0.1511
     55 H           3.6077   -2.1975    3.9030 H       1  UNL1        0.0255
     56 H           4.8143   -3.4499    3.5489 H       1  UNL1        0.0255
     57 H           5.0031   -1.8530    2.8501 H       1  UNL1        0.0255
     58 H          -3.2157   -0.2395   -4.0526 H       1  UNL1        0.2954
     59 H           3.6798    3.2616    1.6806 H       1  UNL1        0.0485
     60 H           2.2084    2.9588    0.7435 H       1  UNL1        0.0485
     61 H           3.4729    3.3932   -1.3902 H       1  UNL1        0.0480
     62 H           3.4872    4.7916   -0.2877 H       1  UNL1        0.0480
     63 H           4.8671   -4.2807    1.3336 H       1  UNL1        0.2099
     64 H           6.9847    4.8900   -0.3627 H       1  UNL1        0.0462
     65 H           5.4699    5.7894   -0.4597 H       1  UNL1        0.0462
     66 H           6.7265    5.8540   -2.6199 H       1  UNL1        0.0245
     67 H           5.1968    4.9858   -2.8414 H       1  UNL1        0.0245
     68 H           6.7108    4.0826   -2.7025 H       1  UNL1        0.0245
     69 H          -5.2367    3.9124    2.7083 H       1  UNL1        0.0474
     70 H          -6.1255    5.2999    2.0168 H       1  UNL1        0.0474
     71 H          -4.7663    4.5816    1.1059 H       1  UNL1        0.0474
@<TRIPOS>BOND
     1     1    22    1
     2     1    26    1
     3     2    29    1
     4     2    38    1
     5     3    21    1
     6     3    31    1
     7     4    23    2
     8     5    27    2
     9     6    30    1
    10     6    58    1
    11     7    30    2
    12     8    32    1
    13     8    63    1
    14     9    34    2
    15    10    37    2
    16    11    39    2
    17    12    22    1
    18    12    23   am
    19    12    24    1
    20    13    21    1
    21    13    27   am
    22    13    44    1
    23    14    28    1
    24    14    34   am
    25    14    54    1
    26    15    34   am
    27    15    35    1
    28    15    37   am
    29    16    36    1
    30    16    39   am
    31    16    40    1
    32    17    19   ar
    33    17    38   ar
    34    17    42    1
    35    18    20   ar
    36    18    38   ar
    37    19    20   ar
    38    21    22    1
    39    21    23    1
    40    22    43    1
    41    24    25    2
    42    24    30    1
    43    25    26    1
    44    25    29    1
    45    26    45    1
    46    26    46    1
    47    27    28    1
    48    28    32    1
    49    28    47    1
    50    29    48    1
    51    29    49    1
    52    31    50    1
    53    31    51    1
    54    31    52    1
    55    32    33    1
    56    32    53    1
    57    33    55    1
    58    33    56    1
    59    33    57    1
    60    35    36    1
    61    35    59    1
    62    35    60    1
    63    36    61    1
    64    36    62    1
    65    37    39    1
    66    40    41    1
    67    40    64    1
    68    40    65    1
    69    41    66    1
    70    41    67    1
    71    41    68    1
    72    42    69    1
    73    42    70    1
    74    42    71    1
