@<TRIPOS>MOLECULE
65755
 40 43 0 0 0
SMALL
GASTEIGER

@<TRIPOS>ATOM
      1 S          -0.0591   -0.6704    2.4756 S.3     1  UNL1       -0.1311
      2 S          -3.9220    1.2616    0.3715 S.3     1  UNL1       -0.0925
      3 S          -6.4895    2.8477   -0.0307 S.2     1  UNL1       -0.0476
      4 O           1.4026   -1.3886   -1.8788 O.2     1  UNL1       -0.2731
      5 O          -2.2907   -2.0602   -2.1813 O.3     1  UNL1       -0.4763
      6 OXT        -1.6577    0.1325   -2.3270 O.2     1  UNL1       -0.2437
      7 O           4.2465   -0.8964   -0.6299 O.2     1  UNL1       -0.2738
      8 N          -0.1020   -1.4439   -0.0639 N.am    1  UNL1       -0.2490
      9 N           2.6554   -0.6789    1.0460 N.am    1  UNL1       -0.3002
     10 N           5.7333    1.2508    0.3168 N.ar    1  UNL1       -0.2232
     11 N           6.9076    0.7197    0.6427 N.ar    1  UNL1       -0.0437
     12 N          -6.4197    0.2942    0.1729 N.ar    1  UNL1       -0.1350
     13 N           7.1296    2.1884   -1.0198 N.ar    1  UNL1       -0.1169
     14 N           7.7684    1.3000   -0.1845 N.ar    1  UNL1       -0.0233
     15 N          -7.7538    0.6192   -0.0001 N.ar    1  UNL1       -0.1489
     16 C           0.3823   -1.8996    1.2264 C.3     1  UNL1        0.1042
     17 CA          1.8007   -1.7886    0.6254 C.3     1  UNL1        0.1284
     18 C           1.0722   -1.5350   -0.7252 C.2     1  UNL1        0.2440
     19 CA         -1.3895   -1.0845   -0.3028 C.2     1  UNL1        0.1228
     20 C          -2.2561   -0.8438    0.7097 C.2     1  UNL1       -0.0211
     21 C          -1.8511   -0.8526    2.1821 C.3     1  UNL1        0.0196
     22 C          -3.7196   -0.5206    0.5268 C.3     1  UNL1        0.0244
     23 C          -1.7820   -0.9054   -1.7086 C.2     1  UNL1        0.3514
     24 C           3.8231   -0.3235    0.3705 C.2     1  UNL1        0.2353
     25 C           4.5155    0.8558    1.0182 C.3     1  UNL1        0.1209
     26 C          -5.6767    1.3656    0.1734 C.ar    1  UNL1        0.1585
     27 C           5.8605    2.1382   -0.6864 C.ar    1  UNL1        0.1386
     28 C          -7.9283    1.9181   -0.1190 C.ar    1  UNL1        0.0895
     29 H           0.0772   -2.9269    1.4581 H       1  UNL1        0.0644
     30 HA          2.3478   -2.7388    0.6414 H       1  UNL1        0.0622
     31 H          -2.1922   -1.7849    2.6455 H       1  UNL1        0.0423
     32 H          -2.3298   -0.0239    2.7138 H       1  UNL1        0.0423
     33 H           2.4016   -0.1353    1.8677 H       1  UNL1        0.1496
     34 H          -4.2995   -0.9026    1.3750 H       1  UNL1        0.0427
     35 H          -4.1135   -1.0138   -0.3684 H       1  UNL1        0.0427
     36 H           4.7891    0.6110    2.0501 H       1  UNL1        0.0606
     37 H           3.8448    1.7216    1.0224 H       1  UNL1        0.0606
     38 H          -2.5677   -1.9850   -3.1194 H       1  UNL1        0.2954
     39 H           5.0491    2.6990   -1.1265 H       1  UNL1        0.1063
     40 H          -8.9017    2.3659   -0.2614 H       1  UNL1        0.0927
@<TRIPOS>BOND
     1     1    16    1
     2     1    21    1
     3     2    22    1
     4     2    26    1
     5     3    26   ar
     6     3    28   ar
     7     4    18    2
     8     5    23    1
     9     5    38    1
    10     6    23    2
    11     7    24    2
    12     8    16    1
    13     8    18   am
    14     8    19    1
    15     9    17    1
    16     9    24   am
    17     9    33    1
    18    10    11   ar
    19    10    25    1
    20    10    27   ar
    21    11    14   ar
    22    12    15   ar
    23    12    26   ar
    24    13    14   ar
    25    13    27   ar
    26    15    28   ar
    27    16    17    1
    28    16    29    1
    29    17    18    1
    30    17    30    1
    31    19    20    2
    32    19    23    1
    33    20    21    1
    34    20    22    1
    35    21    31    1
    36    21    32    1
    37    22    34    1
    38    22    35    1
    39    24    25    1
    40    25    36    1
    41    25    37    1
    42    27    39    1
    43    28    40    1
