@<TRIPOS>MOLECULE
9571080
 52 56 0 0 0
SMALL
GASTEIGER

@<TRIPOS>ATOM
      1 S          -0.1953   -0.7027    0.6321 S.3     1  UNL1       -0.1311
      2 S          -3.8634   -3.8800   -0.0530 S.2     1  UNL1        0.0491
      3 O          -1.1628    3.6977   -0.5203 O.2     1  UNL1       -0.2731
      4 O           1.3969    2.7842   -2.6527 O.co2   1  UNL1       -0.5433
      5 OXT         2.5781    3.6873   -0.9142 O.co2   1  UNL1       -0.5433
      6 O          -3.9317    0.4924    2.4159 O.2     1  UNL1       -0.2683
      7 O          -5.7998    1.7773    0.3006 O.2     1  UNL1       -0.3964
      8 N           0.1839    1.8689    0.1055 N.am    1  UNL1       -0.2533
      9 N          -2.7380    1.0114    0.4624 N.am    1  UNL1       -0.2963
     10 N           4.4083    0.0609   -0.1422 N.ar    1  UNL1       -0.2830
     11 N           6.0622   -0.8209    0.9222 N.ar    1  UNL1       -0.0327
     12 N           7.1619   -1.7448    1.1976 N.ar    1  UNL1        0.0019
     13 N          -5.8278    0.4335   -0.0976 N.2     1  UNL1       -0.0763
     14 N          -5.6610   -2.2315   -0.7398 N.ar    1  UNL1       -0.2024
     15 N          -3.6568   -2.3172    0.5088 N.ar    1  UNL1       -0.1854
     16 N          -6.0059   -4.4384   -1.5655 N.pl3   1  UNL1       -0.3363
     17 C          -0.2564    1.0146    1.1912 C.3     1  UNL1        0.1041
     18 CA         -1.6204    1.7315    1.0710 C.3     1  UNL1        0.1286
     19 C          -0.8873    2.6893    0.0862 C.2     1  UNL1        0.2438
     20 CA          1.3548    1.7150   -0.5636 C.2     1  UNL1        0.0615
     21 C           2.0740    0.5738   -0.4595 C.2     1  UNL1       -0.0169
     22 C           1.6028   -0.6526    0.3181 C.3     1  UNL1        0.0204
     23 C           3.3964    0.3230   -1.1460 C.3     1  UNL1        0.0527
     24 C           1.8255    2.8462   -1.4710 C.2     1  UNL1        0.0860
     25 C          -3.7726    0.4704    1.2061 C.2     1  UNL1        0.2700
     26 C           5.3178   -0.9081   -0.1764 C.ar    1  UNL1        0.3172
     27 C           4.5893    0.7846    1.0234 C.ar    1  UNL1        0.0771
     28 C           5.6443    0.2197    1.6993 C.ar    1  UNL1        0.2226
     29 C          -4.8058   -0.2259    0.3586 C.2     1  UNL1        0.2084
     30 C           5.5737   -1.9907   -1.2233 C.ar    1  UNL1        0.0334
     31 C           6.6219   -2.8539   -0.9391 C.ar    1  UNL1       -0.0300
     32 C          -4.6916   -1.6517    0.0350 C.ar    1  UNL1        0.1969
     33 C           7.3510   -2.6883    0.2398 C.ar    1  UNL1        0.0951
     34 C          -5.3215   -3.4949   -0.8719 C.ar    1  UNL1        0.1758
     35 C          -6.9449    2.4202   -0.2376 C.3     1  UNL1        0.1072
     36 H           0.2692    1.2147    2.1324 H       1  UNL1        0.0644
     37 HA         -1.9199    2.2488    1.9910 H       1  UNL1        0.0622
     38 H           2.1200   -0.7104    1.2811 H       1  UNL1        0.0424
     39 H           1.8366   -1.5642   -0.2420 H       1  UNL1        0.0424
     40 H          -2.7688    0.8896   -0.5474 H       1  UNL1        0.1499
     41 H           3.7440    1.1715   -1.7429 H       1  UNL1        0.0541
     42 H           3.2983   -0.5294   -1.8249 H       1  UNL1        0.0541
     43 H           3.9523    1.6260    1.2220 H       1  UNL1        0.0872
     44 H           6.1569    0.4160    2.6200 H       1  UNL1        0.1422
     45 H           4.9819   -2.0785   -2.1242 H       1  UNL1        0.0702
     46 H           6.8746   -3.6531   -1.6285 H       1  UNL1        0.0637
     47 H           8.1709   -3.3700    0.4537 H       1  UNL1        0.0889
     48 H          -7.8582    1.9553    0.1464 H       1  UNL1        0.0687
     49 H          -6.9293    3.4694    0.0692 H       1  UNL1        0.0687
     50 H          -6.9289    2.3736   -1.3309 H       1  UNL1        0.0687
     51 H          -6.8688   -4.2227   -2.0537 H       1  UNL1        0.1442
     52 H          -5.6827   -5.3985   -1.6247 H       1  UNL1        0.1442
@<TRIPOS>BOND
     1     1    17    1
     2     1    22    1
     3     2    15   ar
     4     2    34   ar
     5     3    19    2
     6     4    24   ar
     7     5    24   ar
     8     6    25    2
     9     7    13    1
    10     7    35    1
    11     8    17    1
    12     8    19   am
    13     8    20    1
    14     9    18    1
    15     9    25   am
    16     9    40    1
    17    10    23    1
    18    10    26   ar
    19    10    27   ar
    20    11    12   ar
    21    11    26   ar
    22    11    28   ar
    23    12    33   ar
    24    13    29    2
    25    14    32   ar
    26    14    34   ar
    27    15    32   ar
    28    16    34    1
    29    16    51    1
    30    16    52    1
    31    17    18    1
    32    17    36    1
    33    18    19    1
    34    18    37    1
    35    20    21    2
    36    20    24    1
    37    21    22    1
    38    21    23    1
    39    22    38    1
    40    22    39    1
    41    23    41    1
    42    23    42    1
    43    25    29    1
    44    26    30   ar
    45    27    28   ar
    46    27    43    1
    47    28    44    1
    48    29    32    1
    49    30    31   ar
    50    30    45    1
    51    31    33   ar
    52    31    46    1
    53    33    47    1
    54    35    48    1
    55    35    49    1
    56    35    50    1
