@<TRIPOS>MOLECULE
3037209
 82 84 0 0 0
SMALL
GASTEIGER

@<TRIPOS>ATOM
      1 O          -0.3406    0.6763    0.2559 O.3     1  UNL1       -0.3410
      2 O           2.0529   -0.9071    0.1050 O.3     1  UNL1       -0.3413
      3 O          -0.5330   -2.4486    2.1437 O.3     1  UNL1       -0.3865
      4 O          -1.3805    2.3834    1.4853 O.3     1  UNL1       -0.3459
      5 O           4.2339   -1.5116    0.8108 O.3     1  UNL1       -0.3415
      6 O           0.4273    3.1507   -0.6978 O.3     1  UNL1       -0.3851
      7 O          -3.1554    5.4450    0.4790 O.3     1  UNL1       -0.3849
      8 O           2.3905    1.6394    1.2347 O.3     1  UNL1       -0.3841
      9 O           4.8786    2.4909    0.0267 O.3     1  UNL1       -0.3864
     10 O           5.9543    0.5063   -1.7498 O.3     1  UNL1       -0.3865
     11 O          -4.3075   -0.8702   -0.1588 O.2     1  UNL1       -0.2729
     12 O          -5.9550   -2.8102    0.5762 O.3     1  UNL1       -0.3813
     13 N          -2.4570   -2.2709   -0.2098 N.am    1  UNL1       -0.3077
     14 N           0.0634   -3.9940   -0.3175 N.3     1  UNL1       -0.3250
     15 N          -3.1272    3.5693   -1.5249 N.3     1  UNL1       -0.3115
     16 N           5.5127   -3.6154   -0.5432 N.3     1  UNL1       -0.3276
     17 N          -5.3537   -5.4422   -0.4031 N.3     1  UNL1       -0.3273
     18 C          -0.9280   -0.5547    0.6798 C.3     1  UNL1        0.1083
     19 C           1.2050   -1.9728    0.5384 C.3     1  UNL1        0.1052
     20 C          -1.4839   -1.2650   -0.5640 C.3     1  UNL1        0.0535
     21 C           0.1132   -1.3868    1.4476 C.3     1  UNL1        0.1107
     22 C           0.6524   -2.7092   -0.6964 C.3     1  UNL1        0.0358
     23 C          -0.3703   -1.8421   -1.4511 C.3     1  UNL1       -0.0142
     24 C          -1.3069    1.7234    0.2212 C.3     1  UNL1        0.1870
     25 C          -0.9188    2.7110   -0.8884 C.3     1  UNL1        0.1239
     26 C          -1.8428    3.9437   -0.9121 C.3     1  UNL1        0.0692
     27 C          -2.0635    4.5195    0.5150 C.3     1  UNL1        0.1043
     28 C           3.1026   -0.6694    1.0410 C.3     1  UNL1        0.1883
     29 C           3.5291    0.7989    1.0849 C.3     1  UNL1        0.1341
     30 C          -2.3877    3.3947    1.5083 C.3     1  UNL1        0.0808
     31 C           4.2937    1.2022   -0.1743 C.3     1  UNL1        0.1140
     32 C           5.4175    0.2051   -0.4639 C.3     1  UNL1        0.1109
     33 C           4.9007   -1.2395   -0.4272 C.3     1  UNL1        0.1023
     34 C          -0.8403    5.3138    1.0015 C.3     1  UNL1       -0.0323
     35 C          -3.8013   -1.9834   -0.0356 C.2     1  UNL1        0.2432
     36 C           6.0317   -2.2562   -0.5568 C.3     1  UNL1        0.0222
     37 C          -4.6113   -3.2132    0.3559 C.3     1  UNL1        0.1430
     38 C          -3.0124    3.5441   -2.9726 C.3     1  UNL1       -0.0154
     39 C          -4.5821   -4.2548   -0.7638 C.3     1  UNL1        0.0279
     40 H          -1.7484   -0.3483    1.3826 H       1  UNL1        0.0642
     41 H           1.8045   -2.7030    1.1020 H       1  UNL1        0.0639
     42 H          -2.0131   -0.5355   -1.1900 H       1  UNL1        0.0525
     43 H           0.5617   -0.7346    2.2053 H       1  UNL1        0.0646
     44 H           1.4827   -2.9122   -1.3848 H       1  UNL1        0.0485
     45 H          -0.8083   -2.4140   -2.2799 H       1  UNL1        0.0300
     46 H           0.1696   -1.0059   -1.9157 H       1  UNL1        0.0300
     47 H          -2.3007    1.3198   -0.0127 H       1  UNL1        0.0937
     48 H          -0.9050    2.1752   -1.8429 H       1  UNL1        0.0661
     49 H          -1.3909    4.7470   -1.5107 H       1  UNL1        0.0517
     50 H           2.7483   -0.9080    2.0514 H       1  UNL1        0.0938
     51 H          -2.1176   -3.2031    0.0073 H       1  UNL1        0.1491
     52 H           4.1766    0.9649    1.9555 H       1  UNL1        0.0671
     53 H           0.7733   -4.5836    0.1150 H       1  UNL1        0.1185
     54 H          -0.2516   -4.4870   -1.1520 H       1  UNL1        0.1185
     55 H          -3.3695    2.9477    1.3067 H       1  UNL1        0.0590
     56 H          -2.4448    3.7901    2.5291 H       1  UNL1        0.0590
     57 H           3.6155    1.3015   -1.0300 H       1  UNL1        0.0648
     58 H           0.1438   -2.9161    2.6621 H       1  UNL1        0.2100
     59 H           6.2250    0.3382    0.2662 H       1  UNL1        0.0646
     60 H           4.1983   -1.4035   -1.2563 H       1  UNL1        0.0636
     61 H          -0.5719    6.0943    0.2807 H       1  UNL1        0.0258
     62 H          -1.0671    5.8328    1.9406 H       1  UNL1        0.0258
     63 H           0.0361    4.6855    1.1780 H       1  UNL1        0.0258
     64 H          -3.8327    4.2602   -1.2691 H       1  UNL1        0.1221
     65 H           6.7326   -2.1477    0.2791 H       1  UNL1        0.0448
     66 H           6.5883   -2.0969   -1.4860 H       1  UNL1        0.0448
     67 H           0.6548    3.7322   -1.4432 H       1  UNL1        0.2101
     68 H          -3.3239    5.7478    1.3877 H       1  UNL1        0.2103
     69 H          -4.2136   -3.6174    1.2933 H       1  UNL1        0.0703
     70 H           1.9242    1.3614    2.0413 H       1  UNL1        0.2101
     71 H          -2.3221    2.7760   -3.3312 H       1  UNL1        0.0388
     72 H          -2.7077    4.5160   -3.3752 H       1  UNL1        0.0388
     73 H          -3.9919    3.3085   -3.4020 H       1  UNL1        0.0388
     74 H           5.4782    2.4361    0.7903 H       1  UNL1        0.2100
     75 H           5.2549    0.3595   -2.4093 H       1  UNL1        0.2100
     76 H          -3.5578   -4.5665   -0.9908 H       1  UNL1        0.0452
     77 H          -5.0056   -3.8334   -1.6834 H       1  UNL1        0.0452
     78 H           5.0070   -3.7816    0.3259 H       1  UNL1        0.1183
     79 H           6.2887   -4.2759   -0.5547 H       1  UNL1        0.1183
     80 H          -6.3258   -2.5147   -0.2729 H       1  UNL1        0.2105
     81 H          -5.3773   -6.0830   -1.1952 H       1  UNL1        0.1183
     82 H          -6.3206   -5.1773   -0.2195 H       1  UNL1        0.1183
@<TRIPOS>BOND
     1     1    18    1
     2     1    24    1
     3     2    19    1
     4     2    28    1
     5     3    21    1
     6     3    58    1
     7     4    24    1
     8     4    30    1
     9     5    28    1
    10     5    33    1
    11     6    25    1
    12     6    67    1
    13     7    27    1
    14     7    68    1
    15     8    29    1
    16     8    70    1
    17     9    31    1
    18     9    74    1
    19    10    32    1
    20    10    75    1
    21    11    35    2
    22    12    37    1
    23    12    80    1
    24    13    20    1
    25    13    35   am
    26    13    51    1
    27    14    22    1
    28    14    53    1
    29    14    54    1
    30    15    26    1
    31    15    38    1
    32    15    64    1
    33    16    36    1
    34    16    78    1
    35    16    79    1
    36    17    39    1
    37    17    81    1
    38    17    82    1
    39    18    20    1
    40    18    21    1
    41    18    40    1
    42    19    21    1
    43    19    22    1
    44    19    41    1
    45    20    23    1
    46    20    42    1
    47    21    43    1
    48    22    23    1
    49    22    44    1
    50    23    45    1
    51    23    46    1
    52    24    25    1
    53    24    47    1
    54    25    26    1
    55    25    48    1
    56    26    27    1
    57    26    49    1
    58    27    30    1
    59    27    34    1
    60    28    29    1
    61    28    50    1
    62    29    31    1
    63    29    52    1
    64    30    55    1
    65    30    56    1
    66    31    32    1
    67    31    57    1
    68    32    33    1
    69    32    59    1
    70    33    36    1
    71    33    60    1
    72    34    61    1
    73    34    62    1
    74    34    63    1
    75    35    37    1
    76    36    65    1
    77    36    66    1
    78    37    39    1
    79    37    69    1
    80    38    71    1
    81    38    72    1
    82    38    73    1
    83    39    76    1
    84    39    77    1
