@<TRIPOS>MOLECULE
272833
 45 47 0 0 0
SMALL
GASTEIGER

@<TRIPOS>ATOM
      1 S           2.3727    0.7956    1.9292 S.3     1  UNL1       -0.1273
      2 O           1.1671   -0.0745   -2.2182 O.2     1  UNL1       -0.2734
      3 O           4.9262   -2.4094   -0.4609 O.3     1  UNL1       -0.4793
      4 OXT         4.9424   -0.5625   -1.7970 O.2     1  UNL1       -0.2489
      5 O          -1.4228    1.5687   -1.6474 O.2     1  UNL1       -0.2717
      6 O          -3.6335    1.1331   -0.2192 O.3     1  UNL1       -0.4799
      7 N           2.8047    0.4671   -0.6072 N.am    1  UNL1       -0.2708
      8 N          -0.0442    1.6078    0.2190 N.am    1  UNL1       -0.2987
      9 C           2.5239    1.5927    0.2889 C.3     1  UNL1        0.1005
     10 C           3.6022   -0.5180    1.4470 C.3     1  UNL1        0.0417
     11 CA          3.2956   -0.7744   -0.0442 C.3     1  UNL1        0.1379
     12 CA          1.2234    1.8097   -0.4967 C.3     1  UNL1        0.1278
     13 C           1.6638    0.5998   -1.3447 C.2     1  UNL1        0.2402
     14 C           5.0096    0.0284    1.7232 C.3     1  UNL1       -0.0484
     15 C           3.3506   -1.7687    2.2912 C.3     1  UNL1       -0.0484
     16 C           4.4643   -1.2033   -0.8727 C.2     1  UNL1        0.3269
     17 C          -1.2755    1.5033   -0.4289 C.2     1  UNL1        0.2542
     18 C          -2.4371    1.2774    0.5278 C.3     1  UNL1        0.1726
     19 C          -2.6048    2.4572    1.4720 C.3     1  UNL1       -0.0191
     20 C          -4.3074   -0.0553   -0.0901 C.ar    1  UNL1        0.1216
     21 C          -3.6769   -1.2433   -0.4385 C.ar    1  UNL1       -0.0199
     22 C          -5.6122   -0.0556    0.3871 C.ar    1  UNL1       -0.0199
     23 C          -4.3622   -2.4511   -0.3078 C.ar    1  UNL1       -0.0583
     24 C          -6.2975   -1.2635    0.5177 C.ar    1  UNL1       -0.0583
     25 C          -5.6725   -2.4612    0.1702 C.ar    1  UNL1       -0.0615
     26 H           3.2687    2.3903    0.2139 H       1  UNL1        0.0640
     27 HA          2.5021   -1.5231   -0.1718 H       1  UNL1        0.0631
     28 HA          1.2122    2.7445   -1.0698 H       1  UNL1        0.0622
     29 H           5.2425    0.9046    1.1078 H       1  UNL1        0.0244
     30 H           5.1279    0.3165    2.7746 H       1  UNL1        0.0244
     31 H           5.7760   -0.7271    1.5173 H       1  UNL1        0.0244
     32 H           3.4764   -1.5633    3.3609 H       1  UNL1        0.0244
     33 H           2.3383   -2.1628    2.1439 H       1  UNL1        0.0244
     34 H           4.0527   -2.5685    2.0327 H       1  UNL1        0.0244
     35 H          -0.0292    1.5103    1.2312 H       1  UNL1        0.1496
     36 H          -2.2145    0.3835    1.1263 H       1  UNL1        0.0828
     37 H           5.6947   -2.7084   -0.9921 H       1  UNL1        0.2951
     38 H          -2.7511    3.3873    0.9107 H       1  UNL1        0.0270
     39 H          -1.7401    2.5915    2.1284 H       1  UNL1        0.0270
     40 H          -3.4931    2.3231    2.0991 H       1  UNL1        0.0270
     41 H          -2.6603   -1.2486   -0.8211 H       1  UNL1        0.0654
     42 H          -6.1018    0.8750    0.6590 H       1  UNL1        0.0654
     43 H          -3.8765   -3.3834   -0.5804 H       1  UNL1        0.0619
     44 H          -7.3177   -1.2715    0.8899 H       1  UNL1        0.0619
     45 H          -6.2063   -3.4016    0.2715 H       1  UNL1        0.0618
@<TRIPOS>BOND
     1     1     9    1
     2     1    10    1
     3     2    13    2
     4     3    16    1
     5     3    37    1
     6     4    16    2
     7     5    17    2
     8     6    18    1
     9     6    20    1
    10     7     9    1
    11     7    11    1
    12     7    13   am
    13     8    12    1
    14     8    17   am
    15     8    35    1
    16     9    12    1
    17     9    26    1
    18    10    11    1
    19    10    14    1
    20    10    15    1
    21    11    16    1
    22    11    27    1
    23    12    13    1
    24    12    28    1
    25    14    29    1
    26    14    30    1
    27    14    31    1
    28    15    32    1
    29    15    33    1
    30    15    34    1
    31    17    18    1
    32    18    19    1
    33    18    36    1
    34    19    38    1
    35    19    39    1
    36    19    40    1
    37    20    21   ar
    38    20    22   ar
    39    21    23   ar
    40    21    41    1
    41    22    24   ar
    42    22    42    1
    43    23    25   ar
    44    23    43    1
    45    24    25   ar
    46    24    44    1
    47    25    45    1
