@<TRIPOS>MOLECULE
10250769
 50 52 0 0 0
SMALL
GASTEIGER

@<TRIPOS>ATOM
      1 S           0.5743    0.4865    0.8229 S.3     1  UNL1       -0.1273
      2 O          -0.6166   -3.1021   -1.4389 O.2     1  UNL1       -0.2734
      3 O          -3.8431   -0.2005   -1.1959 O.3     1  UNL1       -0.4260
      4 O          -3.6317   -1.2928    0.8292 O.2     1  UNL1       -0.2486
      5 O           3.4844   -1.5772    1.5609 O.2     1  UNL1       -0.2754
      6 O          -5.9273    0.2338   -0.0815 O.3     1  UNL1       -0.4275
      7 O          -5.1308    2.2993   -0.7434 O.2     1  UNL1       -0.2511
      8 N          -0.9730   -1.5229    0.2785 N.am    1  UNL1       -0.2708
      9 N           2.1301   -1.9279   -0.2907 N.am    1  UNL1       -0.3015
     10 C           0.1429   -1.2536    1.1902 C.3     1  UNL1        0.1005
     11 C          -1.1976    0.8773    0.4017 C.3     1  UNL1        0.0417
     12 C          -1.6987   -0.4069   -0.2935 C.3     1  UNL1        0.1382
     13 C           0.9324   -2.3348    0.4396 C.3     1  UNL1        0.1277
     14 C          -0.3273   -2.4905   -0.4355 C.2     1  UNL1        0.2402
     15 C          -1.2302    2.0752   -0.5491 C.3     1  UNL1       -0.0484
     16 C          -1.9282    1.2216    1.7067 C.3     1  UNL1       -0.0484
     17 C          -3.1564   -0.6966   -0.1277 C.2     1  UNL1        0.3319
     18 C           3.3243   -1.5779    0.3430 C.2     1  UNL1        0.2180
     19 C           4.4061   -1.1946   -0.6477 C.3     1  UNL1        0.0491
     20 C          -5.2657   -0.4038   -1.1864 C.3     1  UNL1        0.2388
     21 C           4.9074    0.2140   -0.4678 C.ar    1  UNL1       -0.0386
     22 C           4.2954    1.2648   -1.1514 C.ar    1  UNL1       -0.0581
     23 C           5.9833    0.4682    0.3827 C.ar    1  UNL1       -0.0581
     24 C           4.7595    2.5695   -0.9847 C.ar    1  UNL1       -0.0615
     25 C           6.4474    1.7732    0.5495 C.ar    1  UNL1       -0.0615
     26 C          -5.7729    1.5849    0.0145 C.2     1  UNL1        0.3066
     27 C           5.8354    2.8237   -0.1344 C.ar    1  UNL1       -0.0617
     28 C          -6.5232    2.0902    1.2092 C.3     1  UNL1        0.0333
     29 H          -0.0988   -1.4739    2.2340 H       1  UNL1        0.0640
     30 H          -1.4607   -0.3974   -1.3662 H       1  UNL1        0.0631
     31 H           1.1223   -3.2339    1.0390 H       1  UNL1        0.0622
     32 H          -0.8102    2.9735   -0.0819 H       1  UNL1        0.0244
     33 H          -0.6672    1.8813   -1.4695 H       1  UNL1        0.0244
     34 H          -2.2597    2.3099   -0.8409 H       1  UNL1        0.0244
     35 H          -1.4617    2.0751    2.2132 H       1  UNL1        0.0244
     36 H          -2.9693    1.5022    1.5111 H       1  UNL1        0.0244
     37 H          -1.9417    0.3827    2.4113 H       1  UNL1        0.0244
     38 H           2.1010   -1.8931   -1.3069 H       1  UNL1        0.1495
     39 H           4.0675   -1.3296   -1.6820 H       1  UNL1        0.0407
     40 H           5.2319   -1.9062   -0.5198 H       1  UNL1        0.0407
     41 H          -5.6772   -0.0177   -2.1253 H       1  UNL1        0.1168
     42 H          -5.4799   -1.4776   -1.1469 H       1  UNL1        0.1168
     43 H           3.4547    1.0793   -1.8146 H       1  UNL1        0.0620
     44 H           6.4674   -0.3414    0.9223 H       1  UNL1        0.0620
     45 H           4.2825    3.3876   -1.5163 H       1  UNL1        0.0618
     46 H           7.2847    1.9713    1.2122 H       1  UNL1        0.0618
     47 H           6.1963    3.8397   -0.0042 H       1  UNL1        0.0618
     48 H          -7.5882    1.8721    1.0983 H       1  UNL1        0.0342
     49 H          -6.3952    3.1737    1.2858 H       1  UNL1        0.0342
     50 H          -6.1272    1.6285    2.1173 H       1  UNL1        0.0342
@<TRIPOS>BOND
     1     1    10    1
     2     1    11    1
     3     2    14    2
     4     3    17    1
     5     3    20    1
     6     4    17    2
     7     5    18    2
     8     6    20    1
     9     6    26    1
    10     7    26    2
    11     8    10    1
    12     8    12    1
    13     8    14   am
    14     9    13    1
    15     9    18   am
    16     9    38    1
    17    10    13    1
    18    10    29    1
    19    11    12    1
    20    11    15    1
    21    11    16    1
    22    12    17    1
    23    12    30    1
    24    13    14    1
    25    13    31    1
    26    15    32    1
    27    15    33    1
    28    15    34    1
    29    16    35    1
    30    16    36    1
    31    16    37    1
    32    18    19    1
    33    19    21    1
    34    19    39    1
    35    19    40    1
    36    20    41    1
    37    20    42    1
    38    21    22   ar
    39    21    23   ar
    40    22    24   ar
    41    22    43    1
    42    23    25   ar
    43    23    44    1
    44    24    27   ar
    45    24    45    1
    46    25    27   ar
    47    25    46    1
    48    26    28    1
    49    27    47    1
    50    28    48    1
    51    28    49    1
    52    28    50    1
