@<TRIPOS>MOLECULE
6410758
 49 52 0 0 0
SMALL
GASTEIGER

@<TRIPOS>ATOM
      1 S           0.5438    0.1871    1.2476 S.3     1  UNL1       -0.1311
      2 S          -3.8032    1.1926   -0.5337 S.3     1  UNL1       -0.0982
      3 O           0.1144   -3.7797   -1.1386 O.2     1  UNL1       -0.2731
      4 O          -3.3995   -3.2394    0.1038 O.3     1  UNL1       -0.4763
      5 O           4.2487   -1.9256    1.1870 O.2     1  UNL1       -0.2737
      6 OXT        -2.8388   -2.1386   -1.8207 O.2     1  UNL1       -0.2437
      7 O           4.2958    4.8266    0.2971 O.3     1  UNL1       -0.5068
      8 N          -0.5324   -2.0671    0.3478 N.am    1  UNL1       -0.2490
      9 N           2.4519   -1.6847   -0.2585 N.am    1  UNL1       -0.3002
     10 N           5.9633   -1.1884   -0.8497 N.3     1  UNL1       -0.3163
     11 N          -6.2116    1.2379    0.7095 N.ar    1  UNL1       -0.1485
     12 N          -7.3675    1.8719    0.4552 N.ar    1  UNL1       -0.1957
     13 N          -7.4358    2.6726   -0.6206 N.ar    1  UNL1       -0.1621
     14 C           0.4222   -1.6136    1.3429 C.3     1  UNL1        0.1042
     15 CA          1.4801   -2.4158    0.5539 C.3     1  UNL1        0.1284
     16 C           0.2741   -2.9628   -0.2620 C.2     1  UNL1        0.2440
     17 CA         -1.8002   -1.5916    0.2464 C.2     1  UNL1        0.1228
     18 C          -2.1811   -0.4535    0.8739 C.2     1  UNL1       -0.0212
     19 C          -1.2175    0.4388    1.6532 C.3     1  UNL1        0.0196
     20 C          -3.5881    0.0943    0.8765 C.3     1  UNL1        0.0239
     21 C           3.7786   -1.4979    0.1340 C.2     1  UNL1        0.2350
     22 C          -2.7224   -2.3323   -0.6274 C.2     1  UNL1        0.3514
     23 CA          4.5868   -0.6852   -0.8717 C.3     1  UNL1        0.1079
     24 C           4.5083    0.7945   -0.5578 C.ar    1  UNL1       -0.0216
     25 C           3.9936    1.6587   -1.5072 C.ar    1  UNL1       -0.0532
     26 C           4.9542    1.2471    0.6710 C.ar    1  UNL1       -0.0532
     27 C          -5.4896    1.6821   -0.2984 C.ar    1  UNL1        0.1387
     28 C           3.9222    3.0214   -1.2181 C.ar    1  UNL1       -0.0199
     29 C           4.8827    2.6097    0.9601 C.ar    1  UNL1       -0.0199
     30 C           4.3667    3.4970    0.0155 C.ar    1  UNL1        0.1169
     31 C          -6.1998    2.5439   -1.1110 C.ar    1  UNL1        0.0828
     32 H           0.2183   -2.0124    2.3437 H       1  UNL1        0.0644
     33 HA          1.9547   -3.2068    1.1479 H       1  UNL1        0.0622
     34 H           2.1565   -1.2729   -1.1407 H       1  UNL1        0.1496
     35 H          -1.4261    1.4941    1.4494 H       1  UNL1        0.0423
     36 H          -1.3600    0.2740    2.7270 H       1  UNL1        0.0423
     37 H          -3.7806    0.6254    1.8160 H       1  UNL1        0.0427
     38 H          -4.3151   -0.7233    0.8226 H       1  UNL1        0.0427
     39 HA          4.1878   -0.8784   -1.8756 H       1  UNL1        0.0605
     40 H1          5.9700   -2.1730   -1.1154 H       1  UNL1        0.1192
     41 H2          6.5125   -0.7045   -1.5598 H       1  UNL1        0.1192
     42 H          -4.0294   -3.7572   -0.4415 H       1  UNL1        0.2954
     43 H           3.6437    1.3001   -2.4707 H       1  UNL1        0.0622
     44 H           5.3636    0.5728    1.4172 H       1  UNL1        0.0622
     45 H           3.5187    3.7076   -1.9578 H       1  UNL1        0.0654
     46 H           5.2330    2.9678    1.9245 H       1  UNL1        0.0654
     47 H          -5.9185    3.0784   -2.0064 H       1  UNL1        0.0875
     48 H          -8.1707    1.7486    1.0615 H       1  UNL1        0.2125
     49 H           4.6452    4.9781    1.1920 H       1  UNL1        0.2921
@<TRIPOS>BOND
     1     1    14    1
     2     1    19    1
     3     2    20    1
     4     2    27    1
     5     3    16    2
     6     4    22    1
     7     4    42    1
     8     5    21    2
     9     6    22    2
    10     7    30    1
    11     7    49    1
    12     8    14    1
    13     8    16   am
    14     8    17    1
    15     9    15    1
    16     9    21   am
    17     9    34    1
    18    10    23    1
    19    10    40    1
    20    10    41    1
    21    11    12   ar
    22    11    27   ar
    23    12    13   ar
    24    12    48    1
    25    13    31   ar
    26    14    15    1
    27    14    32    1
    28    15    16    1
    29    15    33    1
    30    17    18    2
    31    17    22    1
    32    18    19    1
    33    18    20    1
    34    19    35    1
    35    19    36    1
    36    20    37    1
    37    20    38    1
    38    21    23    1
    39    23    24    1
    40    23    39    1
    41    24    25   ar
    42    24    26   ar
    43    25    28   ar
    44    25    43    1
    45    26    29   ar
    46    26    44    1
    47    27    31   ar
    48    28    30   ar
    49    28    45    1
    50    29    30   ar
    51    29    46    1
    52    31    47    1
