@<TRIPOS>MOLECULE
44205191
 39 41 0 0 0
SMALL
GASTEIGER

@<TRIPOS>ATOM
      1 F           1.4746   -2.1784    0.5384 F       1  UNL1       -0.2035
      2 O          -4.8557   -0.7139   -0.3344 O.3     1  UNL1       -0.4428
      3 O          -6.7308    0.8980    1.0577 O.3     1  UNL1       -0.3913
      4 O          -3.2595   -2.2403    0.1806 O.2     1  UNL1       -0.2259
      5 N          -2.7141   -0.0021   -0.3590 N.am    1  UNL1       -0.2336
      6 N           2.8999    0.1582    0.0181 N.pl3   1  UNL1       -0.2860
      7 N           5.6247    0.2606    0.3282 N.pl3   1  UNL1       -0.2560
      8 N           4.9172    1.4107    0.5102 N.2     1  UNL1       -0.1770
      9 C          -4.9120    0.7120   -0.4802 C.3     1  UNL1        0.1436
     10 C          -3.4947    1.1094   -0.8327 C.3     1  UNL1        0.0623
     11 C          -1.2938    0.0378   -0.2629 C.ar    1  UNL1        0.0424
     12 C           3.6452   -1.0901   -0.1795 C.3     1  UNL1        0.0354
     13 C          -5.3983    1.3212    0.8277 C.3     1  UNL1        0.0828
     14 C          -3.5483   -1.0930   -0.1283 C.2     1  UNL1        0.4077
     15 C           1.4886    0.1156   -0.0756 C.ar    1  UNL1        0.0704
     16 C           5.0810   -0.7499   -0.5898 C.3     1  UNL1        0.0455
     17 C          -0.5867   -1.1091    0.0983 C.ar    1  UNL1       -0.0030
     18 C          -0.6098    1.2235   -0.5303 C.ar    1  UNL1       -0.0382
     19 C           0.8045   -1.0702    0.1918 C.ar    1  UNL1        0.1464
     20 C           0.7815    1.2625   -0.4366 C.ar    1  UNL1       -0.0358
     21 C           3.6333    1.2798    0.3616 C.2     1  UNL1        0.1063
     22 C           7.0533    0.4579    0.0968 C.3     1  UNL1        0.0183
     23 H          -5.6093    0.9499   -1.2910 H       1  UNL1        0.0774
     24 H          -3.3670    1.1745   -1.9192 H       1  UNL1        0.0507
     25 H          -3.2131    2.0585   -0.3678 H       1  UNL1        0.0507
     26 H           3.2079   -1.7073   -0.9737 H       1  UNL1        0.0484
     27 H           3.6699   -1.6621    0.7563 H       1  UNL1        0.0484
     28 H          -5.3836    2.4144    0.7791 H       1  UNL1        0.0594
     29 H          -4.7900    0.9881    1.6751 H       1  UNL1        0.0594
     30 H           5.6792   -1.6684   -0.5663 H       1  UNL1        0.0495
     31 H           5.0941   -0.3660   -1.6182 H       1  UNL1        0.0495
     32 H          -1.0527   -2.0594    0.3198 H       1  UNL1        0.0665
     33 H          -1.1157    2.1357   -0.8295 H       1  UNL1        0.0637
     34 H           1.2808    2.1947   -0.6834 H       1  UNL1        0.0638
     35 H           3.0222    2.1755    0.5491 H       1  UNL1        0.1019
     36 H           7.4763    1.1152    0.8647 H       1  UNL1        0.0444
     37 H           7.2406    0.9131   -0.8819 H       1  UNL1        0.0444
     38 H           7.5991   -0.4901    0.1554 H       1  UNL1        0.0444
     39 H          -7.0196    1.3019    1.8938 H       1  UNL1        0.2096
@<TRIPOS>BOND
     1     1    19    1
     2     2     9    1
     3     2    14    1
     4     3    13    1
     5     3    39    1
     6     4    14    2
     7     5    10    1
     8     5    11    1
     9     5    14   am
    10     6    12    1
    11     6    15    1
    12     6    21    1
    13     7     8    1
    14     7    16    1
    15     7    22    1
    16     8    21    2
    17     9    10    1
    18     9    13    1
    19     9    23    1
    20    10    24    1
    21    10    25    1
    22    11    17   ar
    23    11    18   ar
    24    12    16    1
    25    12    26    1
    26    12    27    1
    27    13    28    1
    28    13    29    1
    29    15    19   ar
    30    15    20   ar
    31    16    30    1
    32    16    31    1
    33    17    19   ar
    34    17    32    1
    35    18    20   ar
    36    18    33    1
    37    20    34    1
    38    21    35    1
    39    22    36    1
    40    22    37    1
    41    22    38    1
