@<TRIPOS>MOLECULE
71447
 57 61 0 0 0
SMALL
GASTEIGER

@<TRIPOS>ATOM
      1 S           0.6547    3.1145    1.2778 S.3     1  UNL1       -0.1273
      2 O           0.2628   -0.5845   -1.0835 O.2     1  UNL1       -0.2734
      3 O          -2.9399    0.6759   -0.0602 O.3     1  UNL1       -0.4189
      4 O          -3.3047    2.4815   -1.4542 O.2     1  UNL1       -0.2486
      5 O           3.1659   -1.2766   -0.1970 O.2     1  UNL1       -0.2737
      6 O          -4.5493   -0.1686   -1.6038 O.3     1  UNL1       -0.4167
      7 O          -5.1898   -2.1035   -2.6998 O.2     1  UNL1       -0.2448
      8 N          -0.6259    1.0501    0.3686 N.am    1  UNL1       -0.2708
      9 N           2.5057    0.7134    0.7934 N.am    1  UNL1       -0.3002
     10 N           4.6899    1.2829   -1.3585 N.3     1  UNL1       -0.3163
     11 C           0.1488    1.3801    1.5686 C.3     1  UNL1        0.1005
     12 C          -1.1497    2.1262   -0.4480 C.3     1  UNL1        0.1382
     13 C          -0.9027    3.4473    0.3117 C.3     1  UNL1        0.0417
     14 C           1.1436    0.2899    1.1473 C.3     1  UNL1        0.1277
     15 C           0.2197    0.0714   -0.0674 C.2     1  UNL1        0.2402
     16 C          -0.6510    4.6071   -0.6535 C.3     1  UNL1       -0.0484
     17 C          -2.0061    3.8239    1.3098 C.3     1  UNL1       -0.0484
     18 C          -2.5837    1.8090   -0.7297 C.2     1  UNL1        0.3324
     19 C           3.4164   -0.1205    0.1400 C.2     1  UNL1        0.2350
     20 C           4.7689    0.5431   -0.0956 C.3     1  UNL1        0.1079
     21 C          -4.2958    0.2553   -0.2412 C.3     1  UNL1        0.2765
     22 C          -4.5603   -0.9775    0.5303 C.ar    1  UNL1        0.0468
     23 C           5.8815   -0.4845   -0.0975 C.ar    1  UNL1       -0.0219
     24 C          -4.9300   -1.9933   -0.3281 C.ar    1  UNL1        0.0693
     25 C          -4.9205   -1.4845   -1.6899 C.2     1  UNL1        0.3428
     26 C          -4.4944   -1.2036    1.8938 C.ar    1  UNL1       -0.0507
     27 C           6.5135   -0.7965    1.0930 C.ar    1  UNL1       -0.0566
     28 C           6.2407   -1.0875   -1.2897 C.ar    1  UNL1       -0.0566
     29 C          -5.2440   -3.2664    0.1108 C.ar    1  UNL1       -0.0473
     30 C          -4.8056   -2.4809    2.3701 C.ar    1  UNL1       -0.0612
     31 C          -5.1777   -3.5059    1.4837 C.ar    1  UNL1       -0.0610
     32 C           7.5386   -1.7426    1.0912 C.ar    1  UNL1       -0.0614
     33 C           7.2657   -2.0336   -1.2915 C.ar    1  UNL1       -0.0614
     34 C           7.9145   -2.3611   -0.1010 C.ar    1  UNL1       -0.0617
     35 H          -0.4041    1.1938    2.4939 H       1  UNL1        0.0640
     36 H          -0.6121    2.0995   -1.4051 H       1  UNL1        0.0631
     37 H           1.1583   -0.5712    1.8260 H       1  UNL1        0.0622
     38 H          -0.4058    5.5320   -0.1186 H       1  UNL1        0.0244
     39 H           0.1717    4.3911   -1.3451 H       1  UNL1        0.0244
     40 H          -1.5419    4.8067   -1.2597 H       1  UNL1        0.0244
     41 H          -1.7223    4.6957    1.9113 H       1  UNL1        0.0244
     42 H          -2.9338    4.0887    0.7902 H       1  UNL1        0.0244
     43 H          -2.2410    3.0040    1.9979 H       1  UNL1        0.0244
     44 H           2.8093    1.6556    1.0272 H       1  UNL1        0.1496
     45 H           4.9618    1.2696    0.7040 H       1  UNL1        0.0605
     46 H          -4.9990    1.0527    0.0271 H       1  UNL1        0.1265
     47 H           3.9555    1.9876   -1.2936 H       1  UNL1        0.1192
     48 H           5.5571    1.7993   -1.5044 H       1  UNL1        0.1192
     49 H          -4.2084   -0.4142    2.5805 H       1  UNL1        0.0623
     50 H           6.2259   -0.3217    2.0264 H       1  UNL1        0.0621
     51 H           5.7431   -0.8680   -2.2293 H       1  UNL1        0.0621
     52 H          -5.5316   -4.0535   -0.5767 H       1  UNL1        0.0626
     53 H          -4.7601   -2.6842    3.4366 H       1  UNL1        0.0618
     54 H          -5.4162   -4.4920    1.8728 H       1  UNL1        0.0618
     55 H           8.0433   -1.9983    2.0183 H       1  UNL1        0.0618
     56 H           7.5558   -2.5187   -2.2190 H       1  UNL1        0.0618
     57 H           8.7117   -3.0987   -0.1022 H       1  UNL1        0.0618
@<TRIPOS>BOND
     1     1    11    1
     2     1    13    1
     3     2    15    2
     4     3    18    1
     5     3    21    1
     6     4    18    2
     7     5    19    2
     8     6    21    1
     9     6    25    1
    10     7    25    2
    11     8    11    1
    12     8    12    1
    13     8    15   am
    14     9    14    1
    15     9    19   am
    16     9    44    1
    17    10    20    1
    18    10    47    1
    19    10    48    1
    20    11    14    1
    21    11    35    1
    22    12    13    1
    23    12    18    1
    24    12    36    1
    25    13    16    1
    26    13    17    1
    27    14    15    1
    28    14    37    1
    29    16    38    1
    30    16    39    1
    31    16    40    1
    32    17    41    1
    33    17    42    1
    34    17    43    1
    35    19    20    1
    36    20    23    1
    37    20    45    1
    38    21    22    1
    39    21    46    1
    40    22    24   ar
    41    22    26   ar
    42    23    27   ar
    43    23    28   ar
    44    24    25    1
    45    24    29   ar
    46    26    30   ar
    47    26    49    1
    48    27    32   ar
    49    27    50    1
    50    28    33   ar
    51    28    51    1
    52    29    31   ar
    53    29    52    1
    54    30    31   ar
    55    30    53    1
    56    31    54    1
    57    32    34   ar
    58    32    55    1
    59    33    34   ar
    60    33    56    1
    61    34    57    1
