@<TRIPOS>MOLECULE
71736
 48 51 0 0 0
SMALL
GASTEIGER

@<TRIPOS>ATOM
      1 CL          6.8652    2.9024    1.4140 Cl      1  UNL1       -0.0780
      2 CL          2.1676    3.3712   -1.4522 Cl      1  UNL1       -0.0780
      3 S           0.7979   -0.1661    1.1968 S.3     1  UNL1       -0.1311
      4 S          -3.5904    0.9101   -0.4359 S.3     1  UNL1       -0.0925
      5 S          -6.0773    2.5090   -1.1627 S.2     1  UNL1       -0.0445
      6 O           0.2477   -4.0990   -1.2203 O.2     1  UNL1       -0.2731
      7 O          -3.2192   -3.5335    0.1376 O.3     1  UNL1       -0.4763
      8 O           4.4824   -2.3145    0.9904 O.2     1  UNL1       -0.2738
      9 OXT        -2.7058   -2.4163   -1.7907 O.2     1  UNL1       -0.2437
     10 O           4.4731    4.2861    0.2394 O.2     1  UNL1       -0.2847
     11 N          -0.3323   -2.3970    0.3052 N.am    1  UNL1       -0.2490
     12 N           2.6360   -2.0414   -0.3897 N.am    1  UNL1       -0.3003
     13 N           4.6865    0.3254   -0.7577 N.ar    1  UNL1       -0.3415
     14 N          -5.9331    0.9634    0.8762 N.ar    1  UNL1       -0.1348
     15 N          -7.2105    1.4955    0.8998 N.ar    1  UNL1       -0.1457
     16 C           0.6581   -1.9663    1.2751 C.3     1  UNL1        0.1042
     17 CA          1.6814   -2.7711    0.4442 C.3     1  UNL1        0.1284
     18 C           0.4442   -3.2945   -0.3398 C.2     1  UNL1        0.2440
     19 CA         -1.5970   -1.9059    0.2490 C.2     1  UNL1        0.1228
     20 C          -1.9446   -0.7710    0.9012 C.2     1  UNL1       -0.0211
     21 C          -0.9469    0.1009    1.6603 C.3     1  UNL1        0.0196
     22 C          -3.3444   -0.2073    0.9541 C.3     1  UNL1        0.0244
     23 C           3.9761   -1.8737   -0.0383 C.2     1  UNL1        0.2334
     24 C          -2.5546   -2.6255   -0.6039 C.2     1  UNL1        0.3514
     25 C           4.7401   -1.0794   -1.0741 C.3     1  UNL1        0.0990
     26 C           5.6509    0.9326    0.0518 C.ar    1  UNL1        0.0272
     27 C           3.6284    1.1343   -1.1820 C.ar    1  UNL1        0.0272
     28 C          -5.2601    1.4163   -0.1443 C.ar    1  UNL1        0.1588
     29 C           5.6469    2.2207    0.4204 C.ar    1  UNL1        0.1051
     30 C           3.4907    2.4356   -0.8949 C.ar    1  UNL1        0.1051
     31 C           4.5319    3.0965   -0.0512 C.ar    1  UNL1        0.2181
     32 C          -7.4158    2.3169   -0.1073 C.ar    1  UNL1        0.0999
     33 C          -8.6729    3.0457   -0.3703 C.3     1  UNL1       -0.0140
     34 H           0.4808   -2.3746    2.2771 H       1  UNL1        0.0644
     35 HA          2.1653   -3.5742    1.0140 H       1  UNL1        0.0622
     36 H          -1.0579   -0.0748    2.7360 H       1  UNL1        0.0423
     37 H          -1.1491    1.1608    1.4749 H       1  UNL1        0.0423
     38 H           2.3185   -1.6301   -1.2643 H       1  UNL1        0.1496
     39 H          -3.5048    0.3164    1.9037 H       1  UNL1        0.0427
     40 H          -4.0854   -1.0130    0.9127 H       1  UNL1        0.0427
     41 H           4.3391   -1.2775   -2.0762 H       1  UNL1        0.0587
     42 H           5.7730   -1.4498   -1.0905 H       1  UNL1        0.0587
     43 H          -3.8719   -4.0376   -0.3937 H       1  UNL1        0.2954
     44 H           6.4337    0.2515    0.3699 H       1  UNL1        0.0825
     45 H           2.9023    0.6085   -1.7932 H       1  UNL1        0.0825
     46 H          -9.4199    2.8119    0.3952 H       1  UNL1        0.0298
     47 H          -9.0930    2.7667   -1.3421 H       1  UNL1        0.0298
     48 H          -8.5098    4.1282   -0.3573 H       1  UNL1        0.0298
@<TRIPOS>BOND
     1     1    29    1
     2     2    30    1
     3     3    16    1
     4     3    21    1
     5     4    22    1
     6     4    28    1
     7     5    28   ar
     8     5    32   ar
     9     6    18    2
    10     7    24    1
    11     7    43    1
    12     8    23    2
    13     9    24    2
    14    10    31    2
    15    11    16    1
    16    11    18   am
    17    11    19    1
    18    12    17    1
    19    12    23   am
    20    12    38    1
    21    13    25    1
    22    13    26   ar
    23    13    27   ar
    24    14    15   ar
    25    14    28   ar
    26    15    32   ar
    27    16    17    1
    28    16    34    1
    29    17    18    1
    30    17    35    1
    31    19    20    2
    32    19    24    1
    33    20    21    1
    34    20    22    1
    35    21    36    1
    36    21    37    1
    37    22    39    1
    38    22    40    1
    39    23    25    1
    40    25    41    1
    41    25    42    1
    42    26    29   ar
    43    26    44    1
    44    27    30   ar
    45    27    45    1
    46    29    31   ar
    47    30    31   ar
    48    32    33    1
    49    33    46    1
    50    33    47    1
    51    33    48    1
