@<TRIPOS>MOLECULE
71392
 45 47 0 0 0
SMALL
GASTEIGER

@<TRIPOS>ATOM
      1 S           0.6807   -0.6049    1.0212 S.3     1  UNL1       -0.1273
      2 O           2.1541    2.0783   -2.1181 O.2     1  UNL1       -0.2734
      3 O           5.1151   -1.3690   -0.0471 O.3     1  UNL1       -0.4793
      4 OXT         4.2069   -0.1544    1.6546 O.2     1  UNL1       -0.2489
      5 O          -1.6384    2.1186    1.5808 O.2     1  UNL1       -0.2737
      6 N           2.5090    0.9043   -0.1028 N.am    1  UNL1       -0.2708
      7 N          -0.5431    1.7835   -0.4359 N.am    1  UNL1       -0.3002
      8 N          -4.0379    2.2278    0.3015 N.3     1  UNL1       -0.3166
      9 C           1.4935    1.0358    0.9429 C.3     1  UNL1        0.1005
     10 C           1.8101   -1.3812   -0.2383 C.3     1  UNL1        0.0417
     11 CA          3.0018   -0.4153   -0.4244 C.3     1  UNL1        0.1379
     12 CA          0.8095    2.0855    0.0517 C.3     1  UNL1        0.1277
     13 C           1.9254    1.7829   -0.9673 C.2     1  UNL1        0.2402
     14 C           2.2140   -2.7782    0.2440 C.3     1  UNL1       -0.0484
     15 C           1.0128   -1.5177   -1.5465 C.3     1  UNL1       -0.0484
     16 C           4.1461   -0.6119    0.5231 C.2     1  UNL1        0.3269
     17 C          -1.6709    1.8269    0.3857 C.2     1  UNL1        0.2347
     18 CA         -2.9631    1.4751   -0.3391 C.3     1  UNL1        0.1042
     19 C          -3.1711   -0.0003   -0.2503 C.2     1  UNL1       -0.0441
     20 C          -3.2609   -0.5752    1.1434 C.3     1  UNL1       -0.0116
     21 C          -3.2724   -0.7720   -1.3471 C.2     1  UNL1       -0.0788
     22 C          -3.4811   -2.2584   -1.3025 C.3     1  UNL1       -0.0162
     23 C          -3.4704   -2.0611    1.1854 C.2     1  UNL1       -0.0836
     24 C          -3.5694   -2.8190    0.0849 C.2     1  UNL1       -0.0839
     25 H           1.8907    1.4096    1.8907 H       1  UNL1        0.0640
     26 HA          3.3727   -0.4082   -1.4561 H       1  UNL1        0.0631
     27 HA          0.8742    3.1096    0.4390 H       1  UNL1        0.0622
     28 H           1.3443   -3.4412    0.3263 H       1  UNL1        0.0244
     29 H           2.9106   -3.2449   -0.4619 H       1  UNL1        0.0244
     30 H           2.7000   -2.7561    1.2257 H       1  UNL1        0.0244
     31 H           0.1345   -2.1618   -1.4191 H       1  UNL1        0.0244
     32 H           0.6644   -0.5542   -1.9314 H       1  UNL1        0.0244
     33 H           1.6346   -1.9704   -2.3278 H       1  UNL1        0.0244
     34 H          -0.6779    1.5267   -1.4110 H       1  UNL1        0.1496
     35 HA         -2.8943    1.8066   -1.3818 H       1  UNL1        0.0602
     36 H           5.8739   -1.5098    0.5585 H       1  UNL1        0.2951
     37 H          -4.0985   -0.1167    1.6816 H       1  UNL1        0.0353
     38 H          -2.3506   -0.3634    1.7109 H       1  UNL1        0.0353
     39 H1         -3.8960    3.2254    0.1447 H       1  UNL1        0.1192
     40 H2         -4.0126    2.0994    1.3125 H       1  UNL1        0.1192
     41 H          -3.2014   -0.3228   -2.3343 H       1  UNL1        0.0575
     42 H          -2.6531   -2.7465   -1.8288 H       1  UNL1        0.0350
     43 H          -4.4034   -2.5018   -1.8419 H       1  UNL1        0.0350
     44 H          -3.5430   -2.5315    2.1619 H       1  UNL1        0.0572
     45 H          -3.7203   -3.8897    0.1880 H       1  UNL1        0.0572
@<TRIPOS>BOND
     1     1     9    1
     2     1    10    1
     3     2    13    2
     4     3    16    1
     5     3    36    1
     6     4    16    2
     7     5    17    2
     8     6     9    1
     9     6    11    1
    10     6    13   am
    11     7    12    1
    12     7    17   am
    13     7    34    1
    14     8    18    1
    15     8    39    1
    16     8    40    1
    17     9    12    1
    18     9    25    1
    19    10    11    1
    20    10    14    1
    21    10    15    1
    22    11    16    1
    23    11    26    1
    24    12    13    1
    25    12    27    1
    26    14    28    1
    27    14    29    1
    28    14    30    1
    29    15    31    1
    30    15    32    1
    31    15    33    1
    32    17    18    1
    33    18    19    1
    34    18    35    1
    35    19    20    1
    36    19    21    2
    37    20    23    1
    38    20    37    1
    39    20    38    1
    40    21    22    1
    41    21    41    1
    42    22    24    1
    43    22    42    1
    44    22    43    1
    45    23    24    2
    46    23    44    1
    47    24    45    1
