@<TRIPOS>MOLECULE
3037206
 73 75 0 0 0
SMALL
GASTEIGER

@<TRIPOS>ATOM
      1 O          -1.0766   -0.5672    0.1933 O.3     1  UNL1       -0.3413
      2 O           1.7698   -0.3552    0.2183 O.3     1  UNL1       -0.3423
      3 O          -2.9767    0.1105    1.3925 O.3     1  UNL1       -0.3459
      4 O           0.5554   -3.2674    2.0222 O.3     1  UNL1       -0.3865
      5 O           3.8168    0.4616    1.0640 O.3     1  UNL1       -0.3453
      6 O          -1.8908    1.9378   -0.6334 O.3     1  UNL1       -0.3851
      7 O          -6.1802    1.5875    0.3478 O.3     1  UNL1       -0.3849
      8 N          -0.9096   -4.1985   -0.4454 N.3     1  UNL1       -0.3250
      9 N           2.1318   -3.9749   -0.4213 N.3     1  UNL1       -0.3250
     10 N          -4.9611    0.2266   -1.7005 N.3     1  UNL1       -0.3115
     11 N           0.3706    1.8051    1.4670 N.3     1  UNL1       -0.3232
     12 N           6.2324    1.7134   -1.4195 N.3     1  UNL1       -0.3165
     13 C          -0.8337   -1.9326    0.5398 C.3     1  UNL1        0.1051
     14 C           1.7248   -1.7418    0.5627 C.3     1  UNL1        0.1051
     15 C           0.4506   -1.9983    1.3845 C.3     1  UNL1        0.1104
     16 C          -0.7731   -2.7732   -0.7498 C.3     1  UNL1        0.0355
     17 C           1.8122   -2.5803   -0.7270 C.3     1  UNL1        0.0355
     18 C           0.5124   -2.4788   -1.5459 C.3     1  UNL1       -0.0175
     19 C          -2.4736   -0.2946    0.1190 C.3     1  UNL1        0.1870
     20 C          -4.1768    1.2471   -0.9873 C.3     1  UNL1        0.0692
     21 C          -2.7032    0.8009   -0.9321 C.3     1  UNL1        0.1239
     22 C          -4.7547    1.4868    0.4358 C.3     1  UNL1        0.1043
     23 C           2.3958    0.4063    1.2377 C.3     1  UNL1        0.1750
     24 C           1.8203    1.8292    1.2861 C.3     1  UNL1        0.0566
     25 C          -4.3875    0.3264    1.3717 C.3     1  UNL1        0.0808
     26 C           2.2012    2.6107    0.0260 C.3     1  UNL1       -0.0307
     27 C           4.2198    1.1176   -0.1439 C.3     1  UNL1        0.0742
     28 C           3.7139    2.5612   -0.1738 C.3     1  UNL1       -0.0237
     29 C          -4.2638    2.8169    1.0307 C.3     1  UNL1       -0.0323
     30 C           5.7407    1.0714   -0.2084 C.3     1  UNL1        0.0220
     31 C          -4.7946    0.3681   -3.1363 C.3     1  UNL1       -0.0154
     32 C           7.6877    1.6776   -1.4745 C.3     1  UNL1       -0.0157
     33 H          -1.6538   -2.2989    1.1752 H       1  UNL1        0.0639
     34 H           2.6110   -1.9906    1.1652 H       1  UNL1        0.0639
     35 H           0.3604   -1.2510    2.1809 H       1  UNL1        0.0646
     36 H          -1.6133   -2.5051   -1.4015 H       1  UNL1        0.0485
     37 H           2.6234   -2.1819   -1.3499 H       1  UNL1        0.0485
     38 H           0.5688   -3.1351   -2.4250 H       1  UNL1        0.0297
     39 H           0.4398   -1.4594   -1.9494 H       1  UNL1        0.0297
     40 H          -3.0197   -1.1930   -0.1988 H       1  UNL1        0.0937
     41 H          -4.2665    2.1989   -1.5294 H       1  UNL1        0.0517
     42 H          -2.3345    0.4404   -1.8977 H       1  UNL1        0.0661
     43 H           2.2274   -0.0457    2.2235 H       1  UNL1        0.0926
     44 H           2.2668    2.3489    2.1442 H       1  UNL1        0.0508
     45 H          -4.7101    0.5442    2.3964 H       1  UNL1        0.0590
     46 H          -4.9024   -0.6003    1.0880 H       1  UNL1        0.0590
     47 H          -0.9105   -4.7356   -1.3114 H       1  UNL1        0.1185
     48 H          -1.8093   -4.3695    0.0015 H       1  UNL1        0.1185
     49 H           2.2321   -4.5020   -1.2877 H       1  UNL1        0.1185
     50 H           3.0324   -4.0254    0.0528 H       1  UNL1        0.1185
     51 H           1.7023    2.1873   -0.8553 H       1  UNL1        0.0283
     52 H           1.8750    3.6545    0.1076 H       1  UNL1        0.0283
     53 H           3.8100    0.5603   -0.9967 H       1  UNL1        0.0610
     54 H           1.3437   -3.2475    2.5910 H       1  UNL1        0.2100
     55 H           4.1864    3.1357    0.6335 H       1  UNL1        0.0291
     56 H           3.9650    3.0548   -1.1188 H       1  UNL1        0.0291
     57 H          -4.4823    3.6500    0.3530 H       1  UNL1        0.0258
     58 H          -4.7929    3.0392    1.9653 H       1  UNL1        0.0258
     59 H          -3.1938    2.8186    1.2517 H       1  UNL1        0.0258
     60 H          -5.9489    0.3482   -1.4766 H       1  UNL1        0.1221
     61 H           6.1572    1.5592    0.6828 H       1  UNL1        0.0449
     62 H           6.0674    0.0243   -0.1658 H       1  UNL1        0.0449
     63 H          -2.0226    2.5882   -1.3443 H       1  UNL1        0.2101
     64 H          -6.5326    1.6725    1.2503 H       1  UNL1        0.2103
     65 H           0.1404    1.3324    2.3398 H       1  UNL1        0.1186
     66 H           0.0180    2.7575    1.5514 H       1  UNL1        0.1186
     67 H          -5.4239   -0.3726   -3.6411 H       1  UNL1        0.0388
     68 H          -5.1109    1.3557   -3.4890 H       1  UNL1        0.0388
     69 H          -3.7691    0.1821   -3.4661 H       1  UNL1        0.0388
     70 H           5.8508    1.2400   -2.2380 H       1  UNL1        0.1217
     71 H           8.0296    2.1725   -2.3888 H       1  UNL1        0.0388
     72 H           8.0642    0.6495   -1.4872 H       1  UNL1        0.0388
     73 H           8.1298    2.2113   -0.6269 H       1  UNL1        0.0388
@<TRIPOS>BOND
     1     1    13    1
     2     1    19    1
     3     2    14    1
     4     2    23    1
     5     3    19    1
     6     3    25    1
     7     4    15    1
     8     4    54    1
     9     5    23    1
    10     5    27    1
    11     6    21    1
    12     6    63    1
    13     7    22    1
    14     7    64    1
    15     8    16    1
    16     8    47    1
    17     8    48    1
    18     9    17    1
    19     9    49    1
    20     9    50    1
    21    10    20    1
    22    10    31    1
    23    10    60    1
    24    11    24    1
    25    11    65    1
    26    11    66    1
    27    12    30    1
    28    12    32    1
    29    12    70    1
    30    13    15    1
    31    13    16    1
    32    13    33    1
    33    14    15    1
    34    14    17    1
    35    14    34    1
    36    15    35    1
    37    16    18    1
    38    16    36    1
    39    17    18    1
    40    17    37    1
    41    18    38    1
    42    18    39    1
    43    19    21    1
    44    19    40    1
    45    20    21    1
    46    20    22    1
    47    20    41    1
    48    21    42    1
    49    22    25    1
    50    22    29    1
    51    23    24    1
    52    23    43    1
    53    24    26    1
    54    24    44    1
    55    25    45    1
    56    25    46    1
    57    26    28    1
    58    26    51    1
    59    26    52    1
    60    27    28    1
    61    27    30    1
    62    27    53    1
    63    28    55    1
    64    28    56    1
    65    29    57    1
    66    29    58    1
    67    29    59    1
    68    30    61    1
    69    30    62    1
    70    31    67    1
    71    31    68    1
    72    31    69    1
    73    32    71    1
    74    32    72    1
    75    32    73    1
