@<TRIPOS>MOLECULE
5487888
 41 43 0 0 0
SMALL
GASTEIGER

@<TRIPOS>ATOM
      1 S          -1.6439    0.9170   -2.2770 S.3     1  UNL1       -0.1311
      2 S           2.8064   -3.3087    0.2680 S.2     1  UNL1       -0.0604
      3 O          -1.5296    0.3781    2.3392 O.2     1  UNL1       -0.2731
      4 O          -3.3670   -2.2011    1.0888 O.3     1  UNL1       -0.4763
      5 OXT        -5.0269   -0.7441    1.6822 O.2     1  UNL1       -0.2437
      6 O           1.4972    1.3806    2.0282 O.2     1  UNL1       -0.2683
      7 O           3.2386    2.7825   -0.1292 O.2     1  UNL1       -0.3964
      8 N          -2.5181    0.6010    0.2099 N.am    1  UNL1       -0.2490
      9 N           0.4546    1.3097   -0.0737 N.am    1  UNL1       -0.2963
     10 N           3.6318    1.4465   -0.2902 N.2     1  UNL1       -0.0779
     11 N           4.1686   -1.2462   -0.4891 N.ar    1  UNL1       -0.2233
     12 N           5.1695   -3.3380   -0.9512 N.pl3   1  UNL1       -0.3375
     13 C          -2.0385    1.6490   -0.6724 C.3     1  UNL1        0.1042
     14 CA         -0.8630    1.8106    0.3161 C.3     1  UNL1        0.1286
     15 C          -1.6570    0.8296    1.2252 C.2     1  UNL1        0.2440
     16 CA         -3.5384   -0.2394   -0.1011 C.2     1  UNL1        0.1217
     17 C          -3.3542    0.3485   -2.5632 C.3     1  UNL1        0.0186
     18 C          -3.9951   -0.3578   -1.3706 C.2     1  UNL1       -0.0344
     19 C          -5.1747   -1.2060   -1.7815 C.3     1  UNL1       -0.0407
     20 C          -4.0809   -1.0624    0.9901 C.2     1  UNL1        0.3513
     21 C           1.4911    1.1503    0.8297 C.2     1  UNL1        0.2684
     22 C           2.7511    0.6232    0.1933 C.2     1  UNL1        0.1897
     23 C           3.0118   -0.8167    0.0966 C.ar    1  UNL1        0.1067
     24 C           2.1447   -1.7554    0.5688 C.ar    1  UNL1        0.0067
     25 C           4.1707   -2.5604   -0.4557 C.ar    1  UNL1        0.1562
     26 C           4.2512    3.6095   -0.6813 C.3     1  UNL1        0.1072
     27 H          -2.7095    2.5154   -0.7100 H       1  UNL1        0.0644
     28 HA         -0.7940    2.8202    0.7386 H       1  UNL1        0.0622
     29 H          -3.3101   -0.3353   -3.4177 H       1  UNL1        0.0423
     30 H          -3.9712    1.2061   -2.8529 H       1  UNL1        0.0423
     31 H           0.6326    1.0676   -1.0457 H       1  UNL1        0.1499
     32 H          -5.6821   -1.6752   -0.9342 H       1  UNL1        0.0275
     33 H          -4.8492   -2.0051   -2.4556 H       1  UNL1        0.0275
     34 H          -5.9156   -0.5909   -2.3031 H       1  UNL1        0.0275
     35 H          -3.6963   -2.7822    1.8072 H       1  UNL1        0.2954
     36 H           1.1882   -1.6409    1.0591 H       1  UNL1        0.0716
     37 H           5.1313   -4.3508   -0.9053 H       1  UNL1        0.1442
     38 H           5.9931   -2.9364   -1.3872 H       1  UNL1        0.1442
     39 H           5.1988    3.4529   -0.1566 H       1  UNL1        0.0687
     40 H           3.9507    4.6534   -0.5589 H       1  UNL1        0.0687
     41 H           4.3724    3.4016   -1.7489 H       1  UNL1        0.0687
@<TRIPOS>BOND
     1     1    13    1
     2     1    17    1
     3     2    24   ar
     4     2    25   ar
     5     3    15    2
     6     4    20    1
     7     4    35    1
     8     5    20    2
     9     6    21    2
    10     7    10    1
    11     7    26    1
    12     8    13    1
    13     8    15   am
    14     8    16    1
    15     9    14    1
    16     9    21   am
    17     9    31    1
    18    10    22    2
    19    11    23   ar
    20    11    25   ar
    21    12    25    1
    22    12    37    1
    23    12    38    1
    24    13    14    1
    25    13    27    1
    26    14    15    1
    27    14    28    1
    28    16    18    2
    29    16    20    1
    30    17    18    1
    31    17    29    1
    32    17    30    1
    33    18    19    1
    34    19    32    1
    35    19    33    1
    36    19    34    1
    37    21    22    1
    38    22    23    1
    39    23    24   ar
    40    24    36    1
    41    26    39    1
    42    26    40    1
    43    26    41    1
