@<TRIPOS>MOLECULE
57514697
 56 59 0 0 0
SMALL
GASTEIGER

@<TRIPOS>ATOM
      1 S           0.1961    0.6861   -0.1033 S.3     1  UNL1       -0.1309
      2 S           6.3331   -0.2238    0.9454 S.3     1  UNL1       -0.0648
      3 O           0.8633   -3.9095    0.1147 O.2     1  UNL1       -0.2731
      4 O          -2.2877   -3.9759   -0.2587 O.3     1  UNL1       -0.4762
      5 O           3.6275   -0.2095    2.2682 O.2     1  UNL1       -0.2734
      6 OXT        -2.0126   -3.3665   -2.4457 O.2     1  UNL1       -0.2437
      7 O           6.2432    0.8300    1.9541 O.co2   1  UNL1       -0.7237
      8 O           6.3540   -1.5861    1.4743 O.2     1  UNL1       -0.1843
      9 O           7.2811    0.0345   -0.1365 O.2     1  UNL1       -0.1843
     10 O          -7.7903    3.2115    1.0298 O.2     1  UNL1       -0.2704
     11 N          -0.3710   -1.9005    0.0865 N.am    1  UNL1       -0.2488
     12 N           2.5882   -1.1605    0.4260 N.am    1  UNL1       -0.2999
     13 N          -4.4741    0.1155   -0.9444 N.ar    1  UNL1       -0.1997
     14 N          -8.0971    1.3066    2.2690 N.am    1  UNL1       -0.3253
     15 C           0.0755   -0.7989    0.9196 C.3     1  UNL1        0.1042
     16 CA          1.3787   -1.6035    1.1182 C.3     1  UNL1        0.1284
     17 C           0.6308   -2.7551    0.3877 C.2     1  UNL1        0.2440
     18 CA         -1.4893   -1.8604   -0.6828 C.2     1  UNL1        0.1280
     19 C          -2.1153   -0.6918   -0.9596 C.2     1  UNL1        0.0330
     20 C          -1.5785    0.6714   -0.5291 C.3     1  UNL1        0.0248
     21 C          -3.4046   -0.5730   -1.7365 C.3     1  UNL1        0.1749
     22 C           3.6280   -0.4894    1.0715 C.2     1  UNL1        0.2414
     23 C          -1.9516   -3.1334   -1.2552 C.2     1  UNL1        0.3516
     24 C           4.7650   -0.1342    0.1327 C.3     1  UNL1        0.1663
     25 C           4.6456    1.2512   -0.4537 C.ar    1  UNL1       -0.0156
     26 C          -5.0964   -0.5654    0.0275 C.ar    1  UNL1        0.1722
     27 C          -4.7737    1.3894   -1.2327 C.ar    1  UNL1        0.1722
     28 C           5.1664    1.5203   -1.7193 C.ar    1  UNL1       -0.0563
     29 C           4.0146    2.2625    0.2703 C.ar    1  UNL1       -0.0563
     30 C          -6.0904    0.0459    0.7782 C.ar    1  UNL1        0.0142
     31 C          -5.7594    2.0516   -0.5148 C.ar    1  UNL1        0.0142
     32 C          -6.4222    1.3688    0.5007 C.ar    1  UNL1        0.0476
     33 C           5.0562    2.8010   -2.2611 C.ar    1  UNL1       -0.0614
     34 C           3.9042    3.5432   -0.2713 C.ar    1  UNL1       -0.0614
     35 C           4.4251    3.8125   -1.5371 C.ar    1  UNL1       -0.0617
     36 C          -7.4625    2.0355    1.2673 C.2     1  UNL1        0.2419
     37 H          -0.5200   -0.6856    1.8333 H       1  UNL1        0.0644
     38 HA          1.5761   -1.8549    2.1679 H       1  UNL1        0.0622
     39 H          -1.6962    1.3929   -1.3442 H       1  UNL1        0.0425
     40 H          -2.1441    1.0372    0.3343 H       1  UNL1        0.0425
     41 H           2.6790   -1.3263   -0.5737 H       1  UNL1        0.1496
     42 H          -3.2424   -0.0106   -2.6635 H       1  UNL1        0.1083
     43 H          -3.8342   -1.5375   -2.0279 H       1  UNL1        0.1083
     44 H           4.7979   -0.8789   -0.6736 H       1  UNL1        0.0673
     45 H          -4.7922   -1.5921    0.1914 H       1  UNL1        0.1376
     46 H          -4.2230    1.8688   -2.0327 H       1  UNL1        0.1376
     47 H          -2.6033   -4.8409   -0.5971 H       1  UNL1        0.2954
     48 H           5.6537    0.7411   -2.2993 H       1  UNL1        0.0621
     49 H           3.6072    2.0995    1.2625 H       1  UNL1        0.0621
     50 H          -6.5566   -0.5549    1.5480 H       1  UNL1        0.0684
     51 H          -5.9911    3.0833   -0.7596 H       1  UNL1        0.0684
     52 H           5.4601    3.0102   -3.2473 H       1  UNL1        0.0618
     53 H           3.4151    4.3318    0.2932 H       1  UNL1        0.0618
     54 H           4.3393    4.8096   -1.9587 H       1  UNL1        0.0618
     55 H          -7.8960    0.3481    2.5234 H       1  UNL1        0.1453
     56 H          -8.8317    1.7468    2.8144 H       1  UNL1        0.1453
@<TRIPOS>BOND
     1     1    15    1
     2     1    20    1
     3     2     7    1
     4     2     8    2
     5     2     9    2
     6     2    24    1
     7     3    17    2
     8     4    23    1
     9     4    47    1
    10     5    22    2
    11     6    23    2
    12    10    36    2
    13    11    15    1
    14    11    17   am
    15    11    18    1
    16    12    16    1
    17    12    22   am
    18    12    41    1
    19    13    21    1
    20    13    26   ar
    21    13    27   ar
    22    14    36   am
    23    14    55    1
    24    14    56    1
    25    15    16    1
    26    15    37    1
    27    16    17    1
    28    16    38    1
    29    18    19    2
    30    18    23    1
    31    19    20    1
    32    19    21    1
    33    20    39    1
    34    20    40    1
    35    21    42    1
    36    21    43    1
    37    22    24    1
    38    24    25    1
    39    24    44    1
    40    25    28   ar
    41    25    29   ar
    42    26    30   ar
    43    26    45    1
    44    27    31   ar
    45    27    46    1
    46    28    33   ar
    47    28    48    1
    48    29    34   ar
    49    29    49    1
    50    30    32   ar
    51    30    50    1
    52    31    32   ar
    53    31    51    1
    54    32    36    1
    55    33    35   ar
    56    33    52    1
    57    34    35   ar
    58    34    53    1
    59    35    54    1
