@<TRIPOS>MOLECULE
5479539
 57 61 0 0 0
SMALL
GASTEIGER

@<TRIPOS>ATOM
      1 S           0.1611   -0.1614   -1.6906 S.3     1  UNL1       -0.1309
      2 S          -4.7091    3.0433    1.4998 S.2     1  UNL1       -0.0604
      3 O          -1.3385   -1.9225    2.3441 O.2     1  UNL1       -0.2731
      4 O           1.0015    0.4522    3.2492 O.co2   1  UNL1       -0.5433
      5 OXT         2.3077   -1.4215    3.1219 O.co2   1  UNL1       -0.5433
      6 O          -4.1656   -2.0606    0.8242 O.2     1  UNL1       -0.2683
      7 O          -5.2094   -1.8825   -2.0966 O.2     1  UNL1       -0.3964
      8 N           0.2365   -1.2625    0.7211 N.am    1  UNL1       -0.2532
      9 N           4.5661    0.2230    0.0670 N.ar    1  UNL1       -0.1969
     10 N          -2.5269   -1.1747   -0.6042 N.am    1  UNL1       -0.2963
     11 N          -5.4877   -0.5900   -1.6304 N.2     1  UNL1       -0.0779
     12 N          -5.8442    1.9061   -0.5253 N.ar    1  UNL1       -0.2233
     13 N          -6.5823    4.1040   -0.0616 N.pl3   1  UNL1       -0.3375
     14 C           0.0167   -1.6399   -0.6614 C.3     1  UNL1        0.1041
     15 CA         -1.4107   -2.0387   -0.2229 C.3     1  UNL1        0.1286
     16 C          -0.8982   -1.7900    1.2264 C.2     1  UNL1        0.2438
     17 C           2.1486    0.0557    0.3028 C.2     1  UNL1        0.0277
     18 CA          1.3219   -0.5793    1.1653 C.2     1  UNL1        0.0658
     19 C           1.8927    0.1459   -1.1995 C.3     1  UNL1        0.0246
     20 C           3.3903    0.8181    0.7025 C.3     1  UNL1        0.1750
     21 C           5.4818    0.9955   -0.5151 C.ar    1  UNL1        0.1873
     22 C           5.4367    2.4825   -0.6266 C.3     1  UNL1        0.0331
     23 C           6.5960    0.4517   -1.1368 C.ar    1  UNL1        0.0195
     24 C           6.9007    2.7724   -1.0004 C.3     1  UNL1       -0.0393
     25 C           7.4344    1.5295   -1.7404 C.3     1  UNL1       -0.0213
     26 C           4.7006   -1.1134    0.0752 C.ar    1  UNL1        0.1718
     27 C           1.5694   -0.5089    2.6680 C.2     1  UNL1        0.0861
     28 C           6.7670   -0.9176   -1.1622 C.ar    1  UNL1       -0.0471
     29 C          -3.7844   -1.2829   -0.0356 C.2     1  UNL1        0.2684
     30 C           5.8035   -1.7125   -0.5395 C.ar    1  UNL1        0.0024
     31 C          -4.7697   -0.2872   -0.5912 C.2     1  UNL1        0.1897
     32 C          -4.9382    1.0377    0.0141 C.ar    1  UNL1        0.1067
     33 C          -4.2255    1.4469    1.1007 C.ar    1  UNL1        0.0067
     34 C          -5.8108    3.0121    0.1844 C.ar    1  UNL1        0.1562
     35 C          -6.0321   -2.1302   -3.2262 C.3     1  UNL1        0.1072
     36 H           0.6379   -2.4867   -0.9765 H       1  UNL1        0.0644
     37 HA         -1.6402   -3.0930   -0.4180 H       1  UNL1        0.0622
     38 H           2.1341    1.1511   -1.5613 H       1  UNL1        0.0425
     39 H           2.5315   -0.5636   -1.7351 H       1  UNL1        0.0425
     40 H           3.5929    0.8002    1.7783 H       1  UNL1        0.1083
     41 H           3.2675    1.8630    0.4074 H       1  UNL1        0.1083
     42 H           4.7568    2.7839   -1.4295 H       1  UNL1        0.0372
     43 H           5.1745    2.9835    0.3086 H       1  UNL1        0.0372
     44 H          -2.3899   -0.4624   -1.3176 H       1  UNL1        0.1499
     45 H           7.4837    2.9162   -0.0797 H       1  UNL1        0.0273
     46 H           7.0069    3.6868   -1.5927 H       1  UNL1        0.0273
     47 H           7.2437    1.5996   -2.8162 H       1  UNL1        0.0315
     48 H           8.5024    1.3845   -1.5558 H       1  UNL1        0.0315
     49 H           3.9612   -1.7133    0.5912 H       1  UNL1        0.1376
     50 H           7.6240   -1.3690   -1.6498 H       1  UNL1        0.0624
     51 H           5.9115   -2.7928   -0.5287 H       1  UNL1        0.0677
     52 H          -3.4699    0.9315    1.6767 H       1  UNL1        0.0716
     53 H          -5.8130   -1.4112   -4.0217 H       1  UNL1        0.0687
     54 H          -5.8198   -3.1371   -3.5951 H       1  UNL1        0.0687
     55 H          -7.0889   -2.0736   -2.9473 H       1  UNL1        0.0687
     56 H          -6.5247    4.9393    0.5116 H       1  UNL1        0.1442
     57 H          -7.2457    4.1276   -0.8290 H       1  UNL1        0.1442
@<TRIPOS>BOND
     1     1    14    1
     2     1    19    1
     3     2    33   ar
     4     2    34   ar
     5     3    16    2
     6     4    27   ar
     7     5    27   ar
     8     6    29    2
     9     7    11    1
    10     7    35    1
    11     8    14    1
    12     8    16   am
    13     8    18    1
    14     9    20    1
    15     9    21   ar
    16     9    26   ar
    17    10    15    1
    18    10    29   am
    19    10    44    1
    20    11    31    2
    21    12    32   ar
    22    12    34   ar
    23    13    34    1
    24    13    56    1
    25    13    57    1
    26    14    15    1
    27    14    36    1
    28    15    16    1
    29    15    37    1
    30    17    18    2
    31    17    19    1
    32    17    20    1
    33    18    27    1
    34    19    38    1
    35    19    39    1
    36    20    40    1
    37    20    41    1
    38    21    22    1
    39    21    23   ar
    40    22    24    1
    41    22    42    1
    42    22    43    1
    43    23    25    1
    44    23    28   ar
    45    24    25    1
    46    24    45    1
    47    24    46    1
    48    25    47    1
    49    25    48    1
    50    26    30   ar
    51    26    49    1
    52    28    30   ar
    53    28    50    1
    54    29    31    1
    55    30    51    1
    56    31    32    1
    57    32    33   ar
    58    33    52    1
    59    35    53    1
    60    35    54    1
    61    35    55    1
