@<TRIPOS>MOLECULE
5330
 31 32 0 0 0
SMALL
GASTEIGER

@<TRIPOS>ATOM
      1 S           1.2505   -2.1539   -0.3090 S.O2    1  UNL1        0.0735
      2 O           2.3062   -3.0100    0.2194 O.2     1  UNL1       -0.1499
      3 O           0.7449   -2.4100   -1.6521 O.2     1  UNL1       -0.1499
      4 O          -4.0044    1.5475    0.0768 O.3     1  UNL1       -0.4787
      5 N          -0.0582   -2.1653    0.8116 N.pl3   1  UNL1       -0.1980
      6 N          -1.8498   -1.2543   -0.4293 N.ar    1  UNL1       -0.1294
      7 N           3.1680    3.4679   -0.0364 N.pl3   1  UNL1       -0.3580
      8 N          -2.8327   -0.3331   -0.6165 N.ar    1  UNL1       -0.1098
      9 C           1.8141   -0.5034   -0.2291 C.ar    1  UNL1        0.1087
     10 C           2.8014   -0.1472    0.6897 C.ar    1  UNL1       -0.0333
     11 C           1.2762    0.4594   -1.0832 C.ar    1  UNL1       -0.0333
     12 C           2.7130    2.1346   -0.0999 C.ar    1  UNL1        0.0247
     13 C           3.2506    1.1718    0.7544 C.ar    1  UNL1       -0.0392
     14 C           1.7257    1.7783   -1.0186 C.ar    1  UNL1       -0.0392
     15 C          -1.0799   -1.1632    0.6692 C.ar    1  UNL1        0.1605
     16 C          -1.2246   -0.1871    1.6259 C.ar    1  UNL1       -0.0136
     17 C          -2.2247    0.7502    1.4355 C.ar    1  UNL1        0.0048
     18 C          -3.0052    0.6410    0.3022 C.ar    1  UNL1        0.2342
     19 C          -4.7710    1.3767   -1.1106 C.3     1  UNL1        0.0805
     20 H           0.2063   -2.3589    1.7868 H       1  UNL1        0.1753
     21 H           3.2291   -0.8781    1.3700 H       1  UNL1        0.0638
     22 H           0.5056    0.2057   -1.8056 H       1  UNL1        0.0638
     23 H           4.0191    1.4375    1.4758 H       1  UNL1        0.0636
     24 H           1.2982    2.5194   -1.6892 H       1  UNL1        0.0636
     25 H          -0.5853   -0.1403    2.5006 H       1  UNL1        0.0654
     26 H          -2.3840    1.5436    2.1576 H       1  UNL1        0.0672
     27 H           3.8822    3.7277    0.6308 H       1  UNL1        0.1423
     28 H           2.7766    4.1664   -0.6543 H       1  UNL1        0.1423
     29 H          -4.1401    1.4684   -2.0010 H       1  UNL1        0.0660
     30 H          -5.5209    2.1727   -1.1446 H       1  UNL1        0.0660
     31 H          -5.2974    0.4165   -1.1027 H       1  UNL1        0.0660
@<TRIPOS>BOND
     1     1     2    2
     2     1     3    2
     3     1     5    1
     4     1     9    1
     5     4    18    1
     6     4    19    1
     7     5    15    1
     8     5    20    1
     9     6     8   ar
    10     6    15   ar
    11     7    12    1
    12     7    27    1
    13     7    28    1
    14     8    18   ar
    15     9    10   ar
    16     9    11   ar
    17    10    13   ar
    18    10    21    1
    19    11    14   ar
    20    11    22    1
    21    12    13   ar
    22    12    14   ar
    23    13    23    1
    24    14    24    1
    25    15    16   ar
    26    16    17   ar
    27    16    25    1
    28    17    18   ar
    29    17    26    1
    30    19    29    1
    31    19    30    1
    32    19    31    1
