@<TRIPOS>MOLECULE
6436055
 49 51 0 0 0
SMALL
GASTEIGER

@<TRIPOS>ATOM
      1 S           0.8171   -1.8834    0.1911 S.3     1  UNL1       -0.1310
      2 S          -6.4414   -1.6720    1.4059 S.2     1  UNL1       -0.0605
      3 O           0.3208    2.6675    1.0012 O.2     1  UNL1       -0.2731
      4 O           5.4895   -1.4165    0.0789 O.3     1  UNL1       -0.4460
      5 O           3.4933    2.5898    1.0595 O.3     1  UNL1       -0.4763
      6 OXT         3.4998    2.3159   -1.2110 O.2     1  UNL1       -0.2437
      7 O          -2.7086    1.9518    1.1455 O.2     1  UNL1       -0.2701
      8 O           7.2523   -1.1178   -1.3714 O.2     1  UNL1       -0.2267
      9 N           1.4614    0.6101    0.8362 N.am    1  UNL1       -0.2489
     10 N          -1.5450    0.0147    0.6709 N.am    1  UNL1       -0.2977
     11 N          -5.7489   -0.7584   -0.9111 N.ar    1  UNL1       -0.2250
     12 N           7.4915   -2.3692    0.5426 N.am    1  UNL1       -0.2950
     13 N          -7.7457   -2.0243   -0.8854 N.pl3   1  UNL1       -0.3375
     14 C           0.8576   -0.5686    1.4304 C.3     1  UNL1        0.1042
     15 CA         -0.4254    0.2791    1.5740 C.3     1  UNL1        0.1286
     16 C           0.4647    1.4740    1.1276 C.2     1  UNL1        0.2440
     17 CA          2.6728    0.6099    0.2228 C.2     1  UNL1        0.1252
     18 C           3.2811   -0.5443   -0.1407 C.2     1  UNL1        0.0056
     19 C           2.6325   -1.9187    0.0076 C.3     1  UNL1        0.0220
     20 C           4.6596   -0.6314   -0.7508 C.3     1  UNL1        0.1182
     21 C           3.2638    1.9202   -0.0873 C.2     1  UNL1        0.3515
     22 C          -2.6199    0.8923    0.5268 C.2     1  UNL1        0.2465
     23 C          -3.6860    0.4493   -0.4481 C.2     1  UNL1        0.0587
     24 C          -3.4980    0.8314   -1.7287 C.2     1  UNL1       -0.0701
     25 C          -4.7979   -0.3461    0.0020 C.ar    1  UNL1        0.0849
     26 C          -2.3615    1.6603   -2.2655 C.3     1  UNL1       -0.0365
     27 C           6.7848   -1.5920   -0.3415 C.2     1  UNL1        0.3980
     28 C          -5.0028   -0.7437    1.3065 C.ar    1  UNL1        0.0050
     29 C          -1.1983    0.7846   -2.7049 C.3     1  UNL1       -0.0618
     30 C          -6.6629   -1.4643   -0.2832 C.ar    1  UNL1        0.1561
     31 H           1.3159   -0.8465    2.3871 H       1  UNL1        0.0644
     32 HA         -0.7660    0.3668    2.6127 H       1  UNL1        0.0622
     33 H           3.0623   -2.4367    0.8720 H       1  UNL1        0.0424
     34 H           2.8369   -2.5242   -0.8817 H       1  UNL1        0.0424
     35 H          -1.5611   -0.8457    0.1283 H       1  UNL1        0.1499
     36 H           5.1205    0.3536   -0.8713 H       1  UNL1        0.0747
     37 H           4.5852   -1.0896   -1.7449 H       1  UNL1        0.0747
     38 H           3.8889    3.4730    0.8985 H       1  UNL1        0.2954
     39 H          -4.2184    0.5234   -2.4850 H       1  UNL1        0.0580
     40 H          -2.0158    2.3957   -1.5311 H       1  UNL1        0.0305
     41 H          -2.7280    2.2396   -3.1212 H       1  UNL1        0.0305
     42 H          -4.4077   -0.5490    2.1880 H       1  UNL1        0.0716
     43 H          -1.5147    0.0584   -3.4615 H       1  UNL1        0.0233
     44 H          -0.4105    1.4045   -3.1456 H       1  UNL1        0.0233
     45 H          -0.7561    0.2340   -1.8725 H       1  UNL1        0.0233
     46 H           7.0597   -2.7393    1.3827 H       1  UNL1        0.1482
     47 H           8.4670   -2.5975    0.3830 H       1  UNL1        0.1482
     48 H          -8.4289   -2.5629   -0.3630 H       1  UNL1        0.1442
     49 H          -7.9139   -1.9256   -1.8812 H       1  UNL1        0.1442
@<TRIPOS>BOND
     1     1    14    1
     2     1    19    1
     3     2    28   ar
     4     2    30   ar
     5     3    16    2
     6     4    20    1
     7     4    27    1
     8     5    21    1
     9     5    38    1
    10     6    21    2
    11     7    22    2
    12     8    27    2
    13     9    14    1
    14     9    16   am
    15     9    17    1
    16    10    15    1
    17    10    22   am
    18    10    35    1
    19    11    25   ar
    20    11    30   ar
    21    12    27   am
    22    12    46    1
    23    12    47    1
    24    13    30    1
    25    13    48    1
    26    13    49    1
    27    14    15    1
    28    14    31    1
    29    15    16    1
    30    15    32    1
    31    17    18    2
    32    17    21    1
    33    18    19    1
    34    18    20    1
    35    19    33    1
    36    19    34    1
    37    20    36    1
    38    20    37    1
    39    22    23    1
    40    23    24    2
    41    23    25    1
    42    24    26    1
    43    24    39    1
    44    25    28   ar
    45    26    29    1
    46    26    40    1
    47    26    41    1
    48    28    42    1
    49    29    43    1
    50    29    44    1
    51    29    45    1
