@<TRIPOS>MOLECULE
5361871
 57 60 0 0 0
SMALL
GASTEIGER

@<TRIPOS>ATOM
      1 S           1.1669    0.9861   -2.2075 S.3     1  UNL1       -0.1311
      2 S          -2.9016   -0.3832   -0.0503 S.3     1  UNL1       -0.0943
      3 S          -5.5659   -1.7555    0.4402 S.2     1  UNL1       -0.0651
      4 S           4.0175   -3.5896    1.6752 S.2     1  UNL1       -0.0604
      5 O           2.4826    2.2563    2.0666 O.2     1  UNL1       -0.2731
      6 O          -1.1685    3.1799    2.0740 O.3     1  UNL1       -0.4763
      7 OXT        -0.6873    0.9999    2.5702 O.2     1  UNL1       -0.2437
      8 O           5.3887    1.3639    1.0559 O.2     1  UNL1       -0.2683
      9 O           6.7846    0.7396   -1.6485 O.2     1  UNL1       -0.3964
     10 O         -10.0702   -2.5971   -0.5837 O.3     1  UNL1       -0.4804
     11 O          -8.3458   -1.7992   -1.8278 O.2     1  UNL1       -0.2506
     12 N           1.0649    2.1292    0.1866 N.am    1  UNL1       -0.2490
     13 N           3.8117    1.0483   -0.6539 N.am    1  UNL1       -0.2963
     14 N           6.5175   -0.5532   -1.1770 N.2     1  UNL1       -0.0779
     15 N          -5.3258    0.7548   -0.1285 N.ar    1  UNL1       -0.2376
     16 N           5.7997   -2.9810   -0.0956 N.ar    1  UNL1       -0.2233
     17 N           5.6455   -5.2818    0.4270 N.pl3   1  UNL1       -0.3375
     18 C           1.6334    2.3592   -1.1291 C.3     1  UNL1        0.1042
     19 CA          3.0141    2.2562   -0.4447 C.3     1  UNL1        0.1286
     20 C           2.2128    2.2489    0.8884 C.2     1  UNL1        0.2440
     21 CA         -0.2525    1.8851    0.4074 C.2     1  UNL1        0.1228
     22 C          -1.0884    1.5477   -0.6034 C.2     1  UNL1       -0.0211
     23 C          -0.6202    1.3141   -2.0381 C.3     1  UNL1        0.0196
     24 C          -2.5764    1.3412   -0.4525 C.3     1  UNL1        0.0243
     25 C          -0.7165    1.9400    1.8017 C.2     1  UNL1        0.3514
     26 C           4.9140    0.7365    0.1230 C.2     1  UNL1        0.2684
     27 C           5.5746   -0.5554   -0.2836 C.2     1  UNL1        0.1897
     28 C          -4.6663   -0.3540    0.0685 C.ar    1  UNL1        0.1354
     29 C           5.1712   -1.8364    0.3053 C.ar    1  UNL1        0.1067
     30 C          -6.9969   -0.8161    0.3350 C.ar    1  UNL1        0.0238
     31 C          -6.6723    0.4881    0.0254 C.ar    1  UNL1        0.0504
     32 C           4.1886   -1.9387    1.2433 C.ar    1  UNL1        0.0067
     33 C          -8.3153   -1.4395    0.5663 C.3     1  UNL1        0.0778
     34 C          -7.6265    1.6021   -0.1511 C.3     1  UNL1       -0.0215
     35 C           5.2678   -3.9836    0.5679 C.ar    1  UNL1        0.1562
     36 C          -8.8803   -1.9642   -0.7383 C.2     1  UNL1        0.3096
     37 C           7.8205    0.6512   -2.6145 C.3     1  UNL1        0.1072
     38 H           1.4065    3.3569   -1.5234 H       1  UNL1        0.0644
     39 HA          3.6229    3.1596   -0.5697 H       1  UNL1        0.0622
     40 H          -0.8792    2.1856   -2.6495 H       1  UNL1        0.0423
     41 H          -1.1286    0.4450   -2.4678 H       1  UNL1        0.0423
     42 H           3.5603    0.4031   -1.3993 H       1  UNL1        0.1499
     43 H          -2.9752    1.9844    0.3395 H       1  UNL1        0.0427
     44 H          -3.0925    1.6265   -1.3766 H       1  UNL1        0.0427
     45 H          -1.4901    3.2611    2.9972 H       1  UNL1        0.2954
     46 H           3.5711   -1.1758    1.6962 H       1  UNL1        0.0716
     47 H          -8.2432   -2.2736    1.2732 H       1  UNL1        0.0432
     48 H          -9.0206   -0.7069    0.9735 H       1  UNL1        0.0432
     49 H          -8.1474    1.8150    0.7878 H       1  UNL1        0.0293
     50 H          -7.1126    2.5163   -0.4653 H       1  UNL1        0.0293
     51 H          -8.3718    1.3579   -0.9147 H       1  UNL1        0.0293
     52 H           7.5048    0.0253   -3.4549 H       1  UNL1        0.0687
     53 H           8.7297    0.2437   -2.1615 H       1  UNL1        0.0687
     54 H           8.0340    1.6567   -2.9865 H       1  UNL1        0.0687
     55 H           6.3799   -5.5579   -0.2165 H       1  UNL1        0.1442
     56 H           5.2078   -6.0266    0.9593 H       1  UNL1        0.1442
     57 H         -10.4319   -2.9106   -1.4400 H       1  UNL1        0.2951
@<TRIPOS>BOND
     1     1    18    1
     2     1    23    1
     3     2    24    1
     4     2    28    1
     5     3    28   ar
     6     3    30   ar
     7     4    32   ar
     8     4    35   ar
     9     5    20    2
    10     6    25    1
    11     6    45    1
    12     7    25    2
    13     8    26    2
    14     9    14    1
    15     9    37    1
    16    10    36    1
    17    10    57    1
    18    11    36    2
    19    12    18    1
    20    12    20   am
    21    12    21    1
    22    13    19    1
    23    13    26   am
    24    13    42    1
    25    14    27    2
    26    15    28   ar
    27    15    31   ar
    28    16    29   ar
    29    16    35   ar
    30    17    35    1
    31    17    55    1
    32    17    56    1
    33    18    19    1
    34    18    38    1
    35    19    20    1
    36    19    39    1
    37    21    22    2
    38    21    25    1
    39    22    23    1
    40    22    24    1
    41    23    40    1
    42    23    41    1
    43    24    43    1
    44    24    44    1
    45    26    27    1
    46    27    29    1
    47    29    32   ar
    48    30    31   ar
    49    30    33    1
    50    31    34    1
    51    32    46    1
    52    33    36    1
    53    33    47    1
    54    33    48    1
    55    34    49    1
    56    34    50    1
    57    34    51    1
    58    37    52    1
    59    37    53    1
    60    37    54    1
