@<TRIPOS>MOLECULE
470999
 68 70 0 0 0
SMALL
GASTEIGER

@<TRIPOS>ATOM
      1 O           1.1638   -0.8145    0.4270 O.3     1  UNL1       -0.3413
      2 O          -1.4329   -0.1747   -0.5709 O.3     1  UNL1       -0.3423
      3 O          -0.1722   -3.3379   -1.8416 O.3     1  UNL1       -0.3865
      4 O           3.4708   -0.5246   -0.0276 O.3     1  UNL1       -0.3406
      5 O          -3.5549    0.7130   -1.1013 O.3     1  UNL1       -0.3453
      6 O           1.5516    0.0886    3.0200 O.3     1  UNL1       -0.3851
      7 O           3.0767    3.1168   -0.4218 O.3     1  UNL1       -0.3875
      8 O           4.2606   -0.3401   -2.6317 O.3     1  UNL1       -0.3924
      9 N           0.2029   -4.3347    0.9810 N.3     1  UNL1       -0.3250
     10 N          -2.5728   -3.6538   -0.0828 N.3     1  UNL1       -0.3250
     11 N           2.6173    2.7795    2.4224 N.3     1  UNL1       -0.3229
     12 N          -0.1677    1.8898   -2.0945 N.3     1  UNL1       -0.3232
     13 N          -5.4836    2.1317    1.6981 N.3     1  UNL1       -0.3277
     14 C           0.8333   -2.1450    0.0224 C.3     1  UNL1        0.1051
     15 C          -1.5006   -1.5698   -0.8748 C.3     1  UNL1        0.1051
     16 C          -0.0837   -2.0644   -1.2105 C.3     1  UNL1        0.1104
     17 C           0.2056   -2.8899    1.2160 C.3     1  UNL1        0.0355
     18 C          -2.1528   -2.3084    0.3096 C.3     1  UNL1        0.0355
     19 C          -1.2071   -2.3579    1.5234 C.3     1  UNL1       -0.0175
     20 C           2.4796   -0.7531    0.9744 C.3     1  UNL1        0.1874
     21 C          -2.1841    0.5896   -1.4994 C.3     1  UNL1        0.1750
     22 C           2.5598    0.3360    2.0463 C.3     1  UNL1        0.1234
     23 C           2.3934    1.7282    1.4229 C.3     1  UNL1        0.0647
     24 C          -1.5668    1.9835   -1.6837 C.3     1  UNL1        0.0566
     25 C           3.3864    1.9050    0.2621 C.3     1  UNL1        0.1012
     26 C           3.3071    0.7210   -0.7149 C.3     1  UNL1        0.1120
     27 C          -1.7066    2.8114   -0.4036 C.3     1  UNL1       -0.0307
     28 C          -3.7300    1.4153    0.1347 C.3     1  UNL1        0.0740
     29 C          -3.1677    2.8350    0.0381 C.3     1  UNL1       -0.0237
     30 C           4.3954    0.7853   -1.7835 C.3     1  UNL1        0.0730
     31 C          -5.2209    1.4394    0.4442 C.3     1  UNL1        0.0196
     32 H           1.7484   -2.6674   -0.2936 H       1  UNL1        0.0639
     33 H          -2.1419   -1.7471   -1.7500 H       1  UNL1        0.0639
     34 H           0.3714   -1.3723   -1.9307 H       1  UNL1        0.0646
     35 H           0.8084   -2.7169    2.1152 H       1  UNL1        0.0485
     36 H          -3.0515   -1.7593    0.6173 H       1  UNL1        0.0485
     37 H          -1.6623   -2.9455    2.3320 H       1  UNL1        0.0297
     38 H          -1.1105   -1.3394    1.9242 H       1  UNL1        0.0297
     39 H           2.7296   -1.7037    1.4621 H       1  UNL1        0.0937
     40 H          -2.1807    0.1169   -2.4907 H       1  UNL1        0.0926
     41 H           3.5378    0.2818    2.5427 H       1  UNL1        0.0660
     42 H           1.3642    1.8531    1.0627 H       1  UNL1        0.0512
     43 H          -2.1248    2.5023   -2.4745 H       1  UNL1        0.0508
     44 H           4.4069    1.9869    0.6579 H       1  UNL1        0.0636
     45 H           2.3392    0.7062   -1.2307 H       1  UNL1        0.0646
     46 H           1.1601   -4.6663    0.8694 H       1  UNL1        0.1185
     47 H          -0.1758   -4.8143    1.7966 H       1  UNL1        0.1185
     48 H          -3.2585   -3.5948   -0.8344 H       1  UNL1        0.1185
     49 H          -3.0413   -4.1091    0.6993 H       1  UNL1        0.1185
     50 H          -1.0904    2.3866    0.3992 H       1  UNL1        0.0283
     51 H          -1.3550    3.8370   -0.5682 H       1  UNL1        0.0283
     52 H          -3.2102    0.8623    0.9281 H       1  UNL1        0.0609
     53 H          -0.7012   -3.2308   -2.6503 H       1  UNL1        0.2100
     54 H          -3.7410    3.4105   -0.7002 H       1  UNL1        0.0291
     55 H          -3.2422    3.3620    0.9954 H       1  UNL1        0.0291
     56 H           5.3907    0.7432   -1.3286 H       1  UNL1        0.0584
     57 H           4.3107    1.6951   -2.3856 H       1  UNL1        0.0584
     58 H           1.9352    2.6846    3.1736 H       1  UNL1        0.1186
     59 H           2.4568    3.6922    1.9980 H       1  UNL1        0.1186
     60 H          -5.7713    1.9274   -0.3688 H       1  UNL1        0.0447
     61 H          -5.6041    0.4136    0.4990 H       1  UNL1        0.0447
     62 H          -0.1009    1.3818   -2.9753 H       1  UNL1        0.1186
     63 H           0.2028    2.8228   -2.2689 H       1  UNL1        0.1186
     64 H           1.7199   -0.7899    3.4012 H       1  UNL1        0.2101
     65 H           2.1789    3.0341   -0.7863 H       1  UNL1        0.2100
     66 H          -6.4791    2.0817    1.9104 H       1  UNL1        0.1183
     67 H          -5.0043    1.6552    2.4610 H       1  UNL1        0.1183
     68 H           4.9632   -0.2808   -3.3013 H       1  UNL1        0.2095
@<TRIPOS>BOND
     1     1    14    1
     2     1    20    1
     3     2    15    1
     4     2    21    1
     5     3    16    1
     6     3    53    1
     7     4    20    1
     8     4    26    1
     9     5    21    1
    10     5    28    1
    11     6    22    1
    12     6    64    1
    13     7    25    1
    14     7    65    1
    15     8    30    1
    16     8    68    1
    17     9    17    1
    18     9    46    1
    19     9    47    1
    20    10    18    1
    21    10    48    1
    22    10    49    1
    23    11    23    1
    24    11    58    1
    25    11    59    1
    26    12    24    1
    27    12    62    1
    28    12    63    1
    29    13    31    1
    30    13    66    1
    31    13    67    1
    32    14    16    1
    33    14    17    1
    34    14    32    1
    35    15    16    1
    36    15    18    1
    37    15    33    1
    38    16    34    1
    39    17    19    1
    40    17    35    1
    41    18    19    1
    42    18    36    1
    43    19    37    1
    44    19    38    1
    45    20    22    1
    46    20    39    1
    47    21    24    1
    48    21    40    1
    49    22    23    1
    50    22    41    1
    51    23    25    1
    52    23    42    1
    53    24    27    1
    54    24    43    1
    55    25    26    1
    56    25    44    1
    57    26    30    1
    58    26    45    1
    59    27    29    1
    60    27    50    1
    61    27    51    1
    62    28    29    1
    63    28    31    1
    64    28    52    1
    65    29    54    1
    66    29    55    1
    67    30    56    1
    68    30    57    1
    69    31    60    1
    70    31    61    1
