@<TRIPOS>MOLECULE
4628
 30 32 0 0 0
SMALL
GASTEIGER

@<TRIPOS>ATOM
      1 O          -4.0523    0.6245    0.1367 O.3     1  UNL1       -0.4525
      2 O          -3.6816   -1.7335   -0.1849 O.3     1  UNL1       -0.4526
      3 O           1.4100   -2.4292   -0.2596 O.2     1  UNL1       -0.2863
      4 O           3.8788   -1.9272    0.4619 O.3     1  UNL1       -0.4770
      5 O           4.6461    0.0412   -0.4139 O.2     1  UNL1       -0.2449
      6 N           0.7730    1.5661    0.2854 N.ar    1  UNL1       -0.3458
      7 C          -0.3588    0.7231    0.1655 C.ar    1  UNL1        0.0565
      8 C          -0.1684   -0.6777   -0.0256 C.ar    1  UNL1        0.0497
      9 C          -1.6817    1.2038    0.2255 C.ar    1  UNL1        0.0081
     10 C           0.5636    2.9988    0.4807 C.3     1  UNL1        0.0205
     11 C          -2.7282    0.3086    0.0986 C.ar    1  UNL1        0.1682
     12 C          -2.5182   -1.0351   -0.0846 C.ar    1  UNL1        0.1670
     13 C          -1.2493   -1.5643   -0.1517 C.ar    1  UNL1       -0.0033
     14 C           2.0406    1.0180    0.2155 C.ar    1  UNL1        0.0228
     15 C           1.2100   -1.2320   -0.0957 C.ar    1  UNL1        0.2035
     16 C           2.3343   -0.2750    0.0401 C.ar    1  UNL1        0.1220
     17 C          -4.6505   -0.6750   -0.0440 C.3     1  UNL1        0.2332
     18 C           0.4896    3.7340   -0.8417 C.3     1  UNL1       -0.0471
     19 C           3.7430   -0.6691   -0.0081 C.2     1  UNL1        0.3420
     20 H          -1.9255    2.2521    0.3517 H       1  UNL1        0.0676
     21 H          -0.2965    3.2278    1.1185 H       1  UNL1        0.0489
     22 H           1.4149    3.4105    1.0407 H       1  UNL1        0.0489
     23 H          -1.1079   -2.6298   -0.2970 H       1  UNL1        0.0663
     24 H           2.8228    1.7638    0.3211 H       1  UNL1        0.0818
     25 H          -5.2776   -0.6511   -0.9427 H       1  UNL1        0.1166
     26 H          -5.2853   -0.8930    0.8225 H       1  UNL1        0.1166
     27 H           1.3992    3.5805   -1.4320 H       1  UNL1        0.0247
     28 H          -0.3586    3.3933   -1.4438 H       1  UNL1        0.0247
     29 H           0.3742    4.8092   -0.6728 H       1  UNL1        0.0247
     30 H           4.8124   -2.2282    0.4452 H       1  UNL1        0.2954
@<TRIPOS>BOND
     1     1    11    1
     2     1    17    1
     3     2    12    1
     4     2    17    1
     5     3    15    2
     6     4    19    1
     7     4    30    1
     8     5    19    2
     9     6     7   ar
    10     6    10    1
    11     6    14   ar
    12     7     8   ar
    13     7     9   ar
    14     8    13   ar
    15     8    15   ar
    16     9    11   ar
    17     9    20    1
    18    10    18    1
    19    10    21    1
    20    10    22    1
    21    11    12   ar
    22    12    13   ar
    23    13    23    1
    24    14    16   ar
    25    14    24    1
    26    15    16   ar
    27    16    19    1
    28    17    25    1
    29    17    26    1
    30    18    27    1
    31    18    28    1
    32    18    29    1
