@<TRIPOS>MOLECULE
33672
 54 57 0 0 0
SMALL
GASTEIGER

@<TRIPOS>ATOM
      1 S          -3.2282   -0.3853    2.0018 S.3     1  UNL1       -0.1273
      2 O          -2.3832   -0.2045   -2.3185 O.2     1  UNL1       -0.2734
      3 O          -6.1520    2.2061   -0.6889 O.3     1  UNL1       -0.4793
      4 OXT        -6.1424    0.1529   -1.6791 O.2     1  UNL1       -0.2489
      5 O           0.3355   -1.5847   -1.6891 O.2     1  UNL1       -0.2745
      6 O           3.1498    0.7766    0.7286 O.3     1  UNL1       -0.4251
      7 O           1.7073    1.0949   -1.0808 O.2     1  UNL1       -0.2492
      8 N          -3.8617   -0.5359   -0.5090 N.am    1  UNL1       -0.2708
      9 N          -0.8920   -1.3613    0.2652 N.am    1  UNL1       -0.3008
     10 C          -3.4439   -1.4681    0.5424 C.3     1  UNL1        0.1005
     11 C          -4.5728    0.7556    1.4022 C.3     1  UNL1        0.0417
     12 CA         -4.3917    0.7586   -0.1309 C.3     1  UNL1        0.1379
     13 CA         -2.1916   -1.7531   -0.2981 C.3     1  UNL1        0.1277
     14 C          -2.7704   -0.7378   -1.3036 C.2     1  UNL1        0.2402
     15 C          -4.3442    2.1478    1.9936 C.3     1  UNL1       -0.0484
     16 C          -5.9177    0.1943    1.8835 C.3     1  UNL1       -0.0484
     17 C          -5.6425    0.9718   -0.9223 C.2     1  UNL1        0.3269
     18 C           0.2799   -1.3099   -0.4914 C.2     1  UNL1        0.2320
     19 C           1.5096   -0.8955    0.3164 C.3     1  UNL1        0.1576
     20 C           2.5273   -2.0231    0.3046 C.ar    1  UNL1       -0.0249
     21 C           2.1101    0.4302   -0.1343 C.2     1  UNL1        0.3288
     22 C           2.4758   -2.9825    1.2971 C.ar    1  UNL1       -0.0573
     23 C           3.4763   -2.0586   -0.6987 C.ar    1  UNL1       -0.0573
     24 C           3.4101   -4.0181    1.2862 C.ar    1  UNL1       -0.0615
     25 C           4.4106   -3.0945   -0.7095 C.ar    1  UNL1       -0.0615
     26 C           4.3774   -4.0741    0.2830 C.ar    1  UNL1       -0.0617
     27 C           3.7623    1.9850    0.3899 C.ar    1  UNL1        0.1317
     28 C           3.2707    3.1514    0.9332 C.ar    1  UNL1       -0.0192
     29 C           4.8342    1.9641   -0.4749 C.ar    1  UNL1       -0.0192
     30 C           3.8821    4.3585    0.5942 C.ar    1  UNL1       -0.0583
     31 C           5.4456    3.1712   -0.8138 C.ar    1  UNL1       -0.0583
     32 C           4.9695    4.3684   -0.2791 C.ar    1  UNL1       -0.0615
     33 H          -4.1380   -2.3041    0.6681 H       1  UNL1        0.0640
     34 HA         -3.6604    1.5131   -0.4511 H       1  UNL1        0.0631
     35 HA         -2.1600   -2.7729   -0.6996 H       1  UNL1        0.0622
     36 H          -4.3791    2.1294    3.0894 H       1  UNL1        0.0244
     37 H          -3.3732    2.5618    1.6975 H       1  UNL1        0.0244
     38 H          -5.1141    2.8511    1.6592 H       1  UNL1        0.0244
     39 H          -6.1361   -0.7883    1.4504 H       1  UNL1        0.0244
     40 H          -5.9411    0.0918    2.9752 H       1  UNL1        0.0244
     41 H          -6.7449    0.8601    1.6138 H       1  UNL1        0.0244
     42 H          -0.8360   -1.1220    1.2521 H       1  UNL1        0.1496
     43 H           1.1982   -0.7154    1.3554 H       1  UNL1        0.0559
     44 H          -6.9747    2.3654   -1.1988 H       1  UNL1        0.2951
     45 H           1.7248   -2.9479    2.0807 H       1  UNL1        0.0621
     46 H           3.5120   -1.3172   -1.4908 H       1  UNL1        0.0621
     47 H           3.3839   -4.7814    2.0584 H       1  UNL1        0.0618
     48 H           5.1616   -3.1404   -1.4927 H       1  UNL1        0.0618
     49 H           5.1042   -4.8811    0.2738 H       1  UNL1        0.0618
     50 H           2.4248    3.1436    1.6134 H       1  UNL1        0.0654
     51 H           5.2052    1.0324   -0.8904 H       1  UNL1        0.0654
     52 H           3.5114    5.2906    1.0106 H       1  UNL1        0.0619
     53 H           6.2924    3.1789   -1.4939 H       1  UNL1        0.0619
     54 H           5.4456    5.3082   -0.5430 H       1  UNL1        0.0618
@<TRIPOS>BOND
     1     1    10    1
     2     1    11    1
     3     2    14    2
     4     3    17    1
     5     3    44    1
     6     4    17    2
     7     5    18    2
     8     6    21    1
     9     6    27    1
    10     7    21    2
    11     8    10    1
    12     8    12    1
    13     8    14   am
    14     9    13    1
    15     9    18   am
    16     9    42    1
    17    10    13    1
    18    10    33    1
    19    11    12    1
    20    11    15    1
    21    11    16    1
    22    12    17    1
    23    12    34    1
    24    13    14    1
    25    13    35    1
    26    15    36    1
    27    15    37    1
    28    15    38    1
    29    16    39    1
    30    16    40    1
    31    16    41    1
    32    18    19    1
    33    19    20    1
    34    19    21    1
    35    19    43    1
    36    20    22   ar
    37    20    23   ar
    38    22    24   ar
    39    22    45    1
    40    23    25   ar
    41    23    46    1
    42    24    26   ar
    43    24    47    1
    44    25    26   ar
    45    25    48    1
    46    26    49    1
    47    27    28   ar
    48    27    29   ar
    49    28    30   ar
    50    28    50    1
    51    29    31   ar
    52    29    51    1
    53    30    32   ar
    54    30    52    1
    55    31    32   ar
    56    31    53    1
    57    32    54    1
