@<TRIPOS>MOLECULE
6713928
 44 46 0 0 0
SMALL
GASTEIGER

@<TRIPOS>ATOM
      1 S          -0.8409    0.7604    1.0707 S.3     1  UNL1       -0.1273
      2 O          -2.1672   -2.2962   -1.8120 O.2     1  UNL1       -0.2734
      3 O          -5.1266    1.3169   -0.8857 O.3     1  UNL1       -0.4793
      4 OXT        -5.1791   -0.7809    0.0046 O.2     1  UNL1       -0.2489
      5 O           1.7383   -1.7074    1.7269 O.2     1  UNL1       -0.2731
      6 N          -2.5312   -0.9441    0.0879 N.am    1  UNL1       -0.2708
      7 N           0.5525   -1.6272   -0.2650 N.am    1  UNL1       -0.2997
      8 N           4.0718   -1.8339    0.3215 N.2     1  UNL1       -0.2819
      9 C          -1.4970   -0.9471    1.1268 C.3     1  UNL1        0.1005
     10 C          -2.5039    1.4236    0.5565 C.3     1  UNL1        0.0417
     11 CA         -3.0648    0.3229   -0.3694 C.3     1  UNL1        0.1379
     12 CA         -0.7545   -2.0007    0.2937 C.3     1  UNL1        0.1278
     13 C          -1.9223   -1.8735   -0.7049 C.2     1  UNL1        0.2402
     14 C          -3.3284    1.6678    1.8277 C.3     1  UNL1       -0.0484
     15 C          -2.3029    2.7387   -0.1986 C.3     1  UNL1       -0.0484
     16 C          -4.5548    0.1959   -0.3819 C.2     1  UNL1        0.3269
     17 C           1.7054   -1.5109    0.5134 C.2     1  UNL1        0.2427
     18 CA          2.9366   -1.1312   -0.2944 C.3     1  UNL1        0.1507
     19 C           3.1257    0.3680   -0.3247 C.ar    1  UNL1       -0.0144
     20 C           2.5344    1.1051   -1.3373 C.ar    1  UNL1       -0.0561
     21 C           3.8860    0.9753    0.6610 C.ar    1  UNL1       -0.0561
     22 C           2.7086    2.4888   -1.3654 C.ar    1  UNL1       -0.0614
     23 C           4.0601    2.3591    0.6330 C.ar    1  UNL1       -0.0614
     24 C           4.9825   -2.1852   -0.5041 C.2     1  UNL1       -0.0131
     25 C           3.4714    3.1157   -0.3802 C.ar    1  UNL1       -0.0617
     26 H          -1.8722   -1.2813    2.0983 H       1  UNL1        0.0640
     27 HA         -2.7316    0.4582   -1.4074 H       1  UNL1        0.0631
     28 HA         -0.7191   -2.9924    0.7604 H       1  UNL1        0.0622
     29 H          -2.8182    2.3594    2.5090 H       1  UNL1        0.0244
     30 H          -4.2981    2.1197    1.5910 H       1  UNL1        0.0244
     31 H          -3.5265    0.7412    2.3781 H       1  UNL1        0.0244
     32 H          -1.8178    3.4935    0.4316 H       1  UNL1        0.0244
     33 H          -1.6843    2.6041   -1.0936 H       1  UNL1        0.0244
     34 H          -3.2606    3.1587   -0.5241 H       1  UNL1        0.0244
     35 H           0.6311   -1.4398   -1.2618 H       1  UNL1        0.1496
     36 HA          2.7937   -1.4975   -1.3216 H       1  UNL1        0.0691
     37 H          -6.1054    1.2536   -0.9015 H       1  UNL1        0.2951
     38 H           1.9373    0.6276   -2.1086 H       1  UNL1        0.0621
     39 H           4.3428    0.4118    1.4688 H       1  UNL1        0.0621
     40 H           2.2491    3.0781   -2.1536 H       1  UNL1        0.0618
     41 H           4.6510    2.8481    1.4020 H       1  UNL1        0.0618
     42 H           5.8731   -2.7205   -0.1397 H       1  UNL1        0.0741
     43 H           4.9457   -1.9824   -1.5879 H       1  UNL1        0.0741
     44 H           3.6058    4.1932   -0.4012 H       1  UNL1        0.0618
@<TRIPOS>BOND
     1     1     9    1
     2     1    10    1
     3     2    13    2
     4     3    16    1
     5     3    37    1
     6     4    16    2
     7     5    17    2
     8     6     9    1
     9     6    11    1
    10     6    13   am
    11     7    12    1
    12     7    17   am
    13     7    35    1
    14     8    18    1
    15     8    24    2
    16     9    12    1
    17     9    26    1
    18    10    11    1
    19    10    14    1
    20    10    15    1
    21    11    16    1
    22    11    27    1
    23    12    13    1
    24    12    28    1
    25    14    29    1
    26    14    30    1
    27    14    31    1
    28    15    32    1
    29    15    33    1
    30    15    34    1
    31    17    18    1
    32    18    19    1
    33    18    36    1
    34    19    20   ar
    35    19    21   ar
    36    20    22   ar
    37    20    38    1
    38    21    23   ar
    39    21    39    1
    40    22    25   ar
    41    22    40    1
    42    23    25   ar
    43    23    41    1
    44    24    42    1
    45    24    43    1
    46    25    44    1
