@<TRIPOS>MOLECULE
4979271
 43 46 0 0 0
SMALL
GASTEIGER

@<TRIPOS>ATOM
      1 S          -1.1877    2.2767   -0.0781 S.3     1  UNL1       -0.1195
      2 F          -1.6514   -2.7889    0.0317 F       1  UNL1       -0.2035
      3 O           3.3358   -2.3019   -0.0214 O.2     1  UNL1       -0.2865
      4 O           5.7520   -1.3055   -0.0185 O.co2   1  UNL1       -0.5445
      5 O           5.9490    0.9730    0.0377 O.co2   1  UNL1       -0.5445
      6 N          -5.5289   -0.1296    0.0943 N.4     1  UNL1        0.2353
      7 N          -2.6930   -0.2787    0.0045 N.pl3   1  UNL1       -0.3167
      8 N           1.9104    1.5188    0.0448 N.ar    1  UNL1       -0.3441
      9 C          -4.8127   -0.1098   -1.2316 C.3     1  UNL1       -0.0160
     10 C          -4.7030    0.5409    1.1626 C.3     1  UNL1       -0.0160
     11 C          -3.4812   -0.8380   -1.0982 C.3     1  UNL1        0.0526
     12 C          -3.3746   -0.1899    1.3026 C.3     1  UNL1        0.0526
     13 C          -1.3026   -0.4400    0.0117 C.ar    1  UNL1        0.0813
     14 C          -6.9062    0.4636   -0.0037 C.3     1  UNL1       -0.0430
     15 C          -0.4265    0.6592   -0.0017 C.ar    1  UNL1        0.0560
     16 C           0.9705    0.4600    0.0240 C.ar    1  UNL1        0.0683
     17 C          -0.8128   -1.7426    0.0240 C.ar    1  UNL1        0.1462
     18 C           1.4390   -0.8782    0.0143 C.ar    1  UNL1        0.0497
     19 C           1.4332    2.8906    0.2531 C.3     1  UNL1        0.0327
     20 C           0.2470    3.2253   -0.6295 C.3     1  UNL1        0.0164
     21 C           0.5575   -1.9661    0.0176 C.ar    1  UNL1       -0.0117
     22 C           3.2635    1.2284    0.0399 C.ar    1  UNL1        0.0177
     23 C           2.9001   -1.1577   -0.0010 C.ar    1  UNL1        0.1983
     24 C           3.8085    0.0103    0.0110 C.ar    1  UNL1        0.0607
     25 C           5.3140   -0.1199    0.0100 C.2     1  UNL1        0.0767
     26 H          -5.6520   -1.1144    0.3676 H       1  UNL1        0.2032
     27 H          -5.4549   -0.6085   -1.9649 H       1  UNL1        0.0830
     28 H          -4.6749    0.9395   -1.5171 H       1  UNL1        0.0830
     29 H          -4.5652    1.5870    0.8665 H       1  UNL1        0.0830
     30 H          -5.2696    0.4955    2.0983 H       1  UNL1        0.0830
     31 H          -3.6629   -1.9061   -0.9279 H       1  UNL1        0.0516
     32 H          -2.9354   -0.7420   -2.0447 H       1  UNL1        0.0516
     33 H          -2.7570    0.3460    2.0337 H       1  UNL1        0.0516
     34 H          -3.5377   -1.2009    1.6973 H       1  UNL1        0.0516
     35 H          -7.4662   -0.1027   -0.7525 H       1  UNL1        0.0778
     36 H          -6.8155    1.5140   -0.2931 H       1  UNL1        0.0778
     37 H          -7.3872    0.3658    0.9730 H       1  UNL1        0.0778
     38 H           2.2322    3.6035    0.0108 H       1  UNL1        0.0500
     39 H           1.2026    3.0451    1.3158 H       1  UNL1        0.0500
     40 H           0.0048    4.2897   -0.5525 H       1  UNL1        0.0397
     41 H           0.4544    3.0008   -1.6815 H       1  UNL1        0.0397
     42 H           0.9203   -2.9901    0.0167 H       1  UNL1        0.0654
     43 H           3.8660    2.1296    0.0692 H       1  UNL1        0.0817
@<TRIPOS>BOND
     1     1    15    1
     2     1    20    1
     3     2    17    1
     4     3    23    2
     5     4    25   ar
     6     5    25   ar
     7     6     9    1
     8     6    10    1
     9     6    14    1
    10     6    26    1
    11     7    11    1
    12     7    12    1
    13     7    13    1
    14     8    16   ar
    15     8    19    1
    16     8    22   ar
    17     9    11    1
    18     9    27    1
    19     9    28    1
    20    10    12    1
    21    10    29    1
    22    10    30    1
    23    11    31    1
    24    11    32    1
    25    12    33    1
    26    12    34    1
    27    13    15   ar
    28    13    17   ar
    29    14    35    1
    30    14    36    1
    31    14    37    1
    32    15    16   ar
    33    16    18   ar
    34    17    21   ar
    35    18    21   ar
    36    18    23   ar
    37    19    20    1
    38    19    38    1
    39    19    39    1
    40    20    40    1
    41    20    41    1
    42    21    42    1
    43    22    24   ar
    44    22    43    1
    45    23    24   ar
    46    24    25    1
