@<TRIPOS>MOLECULE
6921791
 39 41 0 0 0
SMALL
GASTEIGER

@<TRIPOS>ATOM
      1 O           2.8269   -2.3493   -0.1854 O.2     1  UNL1       -0.2864
      2 O           5.2336   -1.3145    0.0080 O.co2   1  UNL1       -0.5445
      3 O           5.3858    0.9510    0.2873 O.co2   1  UNL1       -0.5445
      4 N          -5.8271    0.2267    0.1691 N.4     1  UNL1        0.2292
      5 N          -3.0699   -0.2966   -0.1016 N.pl3   1  UNL1       -0.2895
      6 N          -0.9219    0.5552    0.0616 N.ar    1  UNL1       -0.1962
      7 N           1.3370    1.4122    0.2291 N.ar    1  UNL1       -0.3312
      8 N          -1.3203   -1.8043   -0.2358 N.ar    1  UNL1       -0.2219
      9 C          -5.2929   -1.1160    0.5412 C.3     1  UNL1       -0.0174
     10 C          -4.8421    1.3246    0.4016 C.3     1  UNL1       -0.0174
     11 C          -4.0291   -1.3960   -0.2616 C.3     1  UNL1        0.0551
     12 C          -3.5893    1.0421   -0.4134 C.3     1  UNL1        0.0551
     13 C          -1.7121   -0.5270   -0.0919 C.ar    1  UNL1        0.2200
     14 C           0.4179    0.3418    0.0733 C.ar    1  UNL1        0.1495
     15 C           0.9209   -0.9558   -0.0700 C.ar    1  UNL1        0.0829
     16 C           0.0123   -1.9902   -0.2210 C.ar    1  UNL1        0.0455
     17 C           0.7625    2.7431    0.3745 C.3     1  UNL1        0.0218
     18 C           2.6947    1.1623    0.2372 C.ar    1  UNL1        0.0190
     19 C           2.3790   -1.2172   -0.0606 C.ar    1  UNL1        0.2012
     20 C           3.2655   -0.0394    0.1075 C.ar    1  UNL1        0.0608
     21 C           0.5963    3.3916   -0.9863 C.3     1  UNL1       -0.0470
     22 C           4.7722   -0.1443    0.1372 C.2     1  UNL1        0.0767
     23 H          -6.1168    0.2235   -0.8190 H       1  UNL1        0.2015
     24 H          -6.6818    0.4154    0.7106 H       1  UNL1        0.2015
     25 H          -6.0778   -1.8466    0.3253 H       1  UNL1        0.0829
     26 H          -5.0994   -1.0982    1.6191 H       1  UNL1        0.0829
     27 H          -4.6386    1.3551    1.4772 H       1  UNL1        0.0829
     28 H          -5.3226    2.2580    0.0943 H       1  UNL1        0.0829
     29 H          -3.6277   -2.3515    0.0954 H       1  UNL1        0.0517
     30 H          -4.2666   -1.5185   -1.3255 H       1  UNL1        0.0517
     31 H          -3.8073    1.1013   -1.4872 H       1  UNL1        0.0517
     32 H          -2.8720    1.8397   -0.1905 H       1  UNL1        0.0517
     33 H           0.3265   -3.0220   -0.3372 H       1  UNL1        0.0839
     34 H          -0.1912    2.7329    0.9163 H       1  UNL1        0.0489
     35 H           1.4292    3.3694    0.9815 H       1  UNL1        0.0489
     36 H           3.2685    2.0741    0.3615 H       1  UNL1        0.0817
     37 H           1.5545    3.4647   -1.5117 H       1  UNL1        0.0247
     38 H          -0.0898    2.8212   -1.6210 H       1  UNL1        0.0247
     39 H           0.1927    4.4032   -0.8771 H       1  UNL1        0.0247
@<TRIPOS>BOND
     1     1    19    2
     2     2    22   ar
     3     3    22   ar
     4     4     9    1
     5     4    10    1
     6     4    23    1
     7     4    24    1
     8     5    11    1
     9     5    12    1
    10     5    13    1
    11     6    13   ar
    12     6    14   ar
    13     7    14   ar
    14     7    17    1
    15     7    18   ar
    16     8    13   ar
    17     8    16   ar
    18     9    11    1
    19     9    25    1
    20     9    26    1
    21    10    12    1
    22    10    27    1
    23    10    28    1
    24    11    29    1
    25    11    30    1
    26    12    31    1
    27    12    32    1
    28    14    15   ar
    29    15    16   ar
    30    15    19   ar
    31    16    33    1
    32    17    21    1
    33    17    34    1
    34    17    35    1
    35    18    20   ar
    36    18    36    1
    37    19    20   ar
    38    20    22    1
    39    21    37    1
    40    21    38    1
    41    21    39    1
