@<TRIPOS>MOLECULE
60063
 42 45 0 0 0
SMALL
GASTEIGER

@<TRIPOS>ATOM
      1 CL          1.4533    2.0989    0.4446 Cl      1  UNL1       -0.0794
      2 F           2.2516   -2.8002   -0.1795 F       1  UNL1       -0.2035
      3 O          -2.7763   -2.6521   -0.2977 O.2     1  UNL1       -0.2863
      4 O          -5.1595   -1.8163    0.3902 O.3     1  UNL1       -0.4770
      5 O          -5.6452    0.2335   -0.5000 O.2     1  UNL1       -0.2449
      6 N          -1.6085    1.2161    0.2447 N.ar    1  UNL1       -0.3414
      7 N           3.0816   -0.2461    0.1817 N.pl3   1  UNL1       -0.3250
      8 N           6.3866    0.4106   -1.1937 N.3     1  UNL1       -0.3259
      9 C          -1.3885    2.6689    0.4415 C.3     1  UNL1        0.0347
     10 C          -1.1135    3.5612   -0.7209 C.3     1  UNL1       -0.0302
     11 C          -2.4176    3.6598    0.0150 C.3     1  UNL1       -0.0302
     12 C          -0.6014    0.2147    0.1404 C.ar    1  UNL1        0.0735
     13 C           5.2206    0.5777   -0.3440 C.3     1  UNL1        0.0221
     14 C           3.9234    0.0582   -0.9754 C.3     1  UNL1        0.0275
     15 C           5.3065   -0.2244    0.9497 C.3     1  UNL1       -0.0205
     16 C           3.8532   -0.2516    1.4239 C.3     1  UNL1        0.0138
     17 C           1.7291   -0.5017    0.1101 C.ar    1  UNL1        0.0860
     18 C          -2.9395    0.8561    0.1608 C.ar    1  UNL1        0.0232
     19 C           0.7698    0.5091    0.2167 C.ar    1  UNL1        0.0889
     20 C          -0.9773   -1.1330   -0.0475 C.ar    1  UNL1        0.0503
     21 C          -3.4025   -0.3876   -0.0158 C.ar    1  UNL1        0.1220
     22 C           1.3375   -1.8246   -0.0748 C.ar    1  UNL1        0.1465
     23 C          -2.4173   -1.4925   -0.1347 C.ar    1  UNL1        0.2035
     24 C          -0.0152   -2.1449   -0.1541 C.ar    1  UNL1       -0.0117
     25 C          -4.8511   -0.5897   -0.0812 C.2     1  UNL1        0.3420
     26 H          -0.9562    2.8892    1.4128 H       1  UNL1        0.0528
     27 H          -1.1268    3.1333   -1.7160 H       1  UNL1        0.0286
     28 H          -0.4091    4.3739   -0.5927 H       1  UNL1        0.0286
     29 H          -2.5693    4.5281    0.6477 H       1  UNL1        0.0286
     30 H          -3.2836    3.4247   -0.5906 H       1  UNL1        0.0286
     31 H           5.1055    1.6414   -0.0993 H       1  UNL1        0.0474
     32 H           3.4748    0.8109   -1.6328 H       1  UNL1        0.0479
     33 H           4.0891   -0.8582   -1.5546 H       1  UNL1        0.0479
     34 H           5.9768    0.2239    1.6893 H       1  UNL1        0.0296
     35 H           5.6494   -1.2491    0.7559 H       1  UNL1        0.0296
     36 H           3.6555   -1.1438    2.0273 H       1  UNL1        0.0464
     37 H           3.6236    0.6378    2.0205 H       1  UNL1        0.0464
     38 H          -3.6609    1.6466    0.3217 H       1  UNL1        0.0819
     39 H          -0.3002   -3.1832   -0.2991 H       1  UNL1        0.0654
     40 H           6.2281    0.8781   -2.0856 H       1  UNL1        0.1185
     41 H           6.5181   -0.5758   -1.4147 H       1  UNL1        0.1185
     42 H          -6.1246   -1.9899    0.3625 H       1  UNL1        0.2954
@<TRIPOS>BOND
     1     1    19    1
     2     2    22    1
     3     3    23    2
     4     4    25    1
     5     4    42    1
     6     5    25    2
     7     6     9    1
     8     6    12   ar
     9     6    18   ar
    10     7    14    1
    11     7    16    1
    12     7    17    1
    13     8    13    1
    14     8    40    1
    15     8    41    1
    16     9    10    1
    17     9    11    1
    18     9    26    1
    19    10    11    1
    20    10    27    1
    21    10    28    1
    22    11    29    1
    23    11    30    1
    24    12    19   ar
    25    12    20   ar
    26    13    14    1
    27    13    15    1
    28    13    31    1
    29    14    32    1
    30    14    33    1
    31    15    16    1
    32    15    34    1
    33    15    35    1
    34    16    36    1
    35    16    37    1
    36    17    19   ar
    37    17    22   ar
    38    18    21   ar
    39    18    38    1
    40    20    23   ar
    41    20    24   ar
    42    21    23   ar
    43    21    25    1
    44    22    24   ar
    45    24    39    1
