@<TRIPOS>MOLECULE
11234049
 42 45 0 0 0
SMALL
GASTEIGER

@<TRIPOS>ATOM
      1 F           0.1878    2.1002    0.9082 F       1  UNL1       -0.2048
      2 O           6.5187    0.6450    0.0034 O.3     1  UNL1       -0.4428
      3 O           8.2681   -1.3354    1.0378 O.3     1  UNL1       -0.3913
      4 O           4.9366    2.0582    0.8054 O.2     1  UNL1       -0.2259
      5 N           4.3639    0.0472   -0.3019 N.am    1  UNL1       -0.2336
      6 N          -3.3526   -0.6121    0.8599 N.ar    1  UNL1       -0.2511
      7 N          -6.1076   -0.6679    0.9443 N.ar    1  UNL1       -0.1291
      8 N          -7.3678   -0.4470    0.5446 N.ar    1  UNL1       -0.1659
      9 N          -6.2708    0.4419   -1.0228 N.ar    1  UNL1       -0.1062
     10 N          -7.5123    0.2079   -0.6157 N.ar    1  UNL1       -0.0460
     11 C           6.5455   -0.7011   -0.4913 C.3     1  UNL1        0.1436
     12 C           5.1405   -0.9417   -1.0003 C.3     1  UNL1        0.0623
     13 C           2.9399    0.0412   -0.2877 C.ar    1  UNL1        0.0423
     14 C           6.9401   -1.6347    0.6447 C.3     1  UNL1        0.0828
     15 C           5.2121    1.0127    0.2341 C.2     1  UNL1        0.4077
     16 C           2.2374    1.0900    0.3135 C.ar    1  UNL1       -0.0043
     17 C           2.2343   -1.0132   -0.8756 C.ar    1  UNL1       -0.0394
     18 C           0.1438    0.0302   -0.2615 C.ar    1  UNL1        0.0189
     19 C           0.8426    1.0846    0.3266 C.ar    1  UNL1        0.1329
     20 C           0.8396   -1.0186   -0.8624 C.ar    1  UNL1       -0.0495
     21 C          -1.3035    0.0202   -0.2506 C.ar    1  UNL1        0.0030
     22 C          -2.0290    0.6017   -1.2823 C.ar    1  UNL1       -0.0504
     23 C          -2.0032   -0.5685    0.7883 C.ar    1  UNL1        0.0362
     24 C          -3.4187    0.5769   -1.2442 C.ar    1  UNL1       -0.0319
     25 C          -4.0269   -0.0367   -0.1610 C.ar    1  UNL1        0.1114
     26 C          -5.4578   -0.0933   -0.0697 C.ar    1  UNL1        0.2226
     27 C          -8.5008   -0.8876    1.3162 C.3     1  UNL1        0.0516
     28 H           7.2785   -0.7570   -1.3035 H       1  UNL1        0.0774
     29 H           5.0729   -0.7294   -2.0734 H       1  UNL1        0.0507
     30 H           4.8074   -1.9646   -0.8024 H       1  UNL1        0.0507
     31 H           6.8941   -2.6844    0.3387 H       1  UNL1        0.0594
     32 H           6.3003   -1.4948    1.5217 H       1  UNL1        0.0594
     33 H           2.7156    1.9364    0.7879 H       1  UNL1        0.0665
     34 H           2.7318   -1.8460   -1.3622 H       1  UNL1        0.0636
     35 H           0.3099   -1.8472   -1.3270 H       1  UNL1        0.0625
     36 H           8.8463   -1.4976    0.2730 H       1  UNL1        0.2096
     37 H          -1.5283    1.0775   -2.1218 H       1  UNL1        0.0625
     38 H          -1.4940   -1.0394    1.6242 H       1  UNL1        0.0836
     39 H          -3.9818    1.0322   -2.0523 H       1  UNL1        0.0640
     40 H          -8.8654   -1.8211    0.8814 H       1  UNL1        0.0491
     41 H          -8.1914   -1.0464    2.3522 H       1  UNL1        0.0491
     42 H          -9.2754   -0.1179    1.2759 H       1  UNL1        0.0491
@<TRIPOS>BOND
     1     1    19    1
     2     2    11    1
     3     2    15    1
     4     3    14    1
     5     3    36    1
     6     4    15    2
     7     5    12    1
     8     5    13    1
     9     5    15   am
    10     6    23   ar
    11     6    25   ar
    12     7     8   ar
    13     7    26   ar
    14     8    10   ar
    15     8    27    1
    16     9    10   ar
    17     9    26   ar
    18    11    12    1
    19    11    14    1
    20    11    28    1
    21    12    29    1
    22    12    30    1
    23    13    16   ar
    24    13    17   ar
    25    14    31    1
    26    14    32    1
    27    16    19   ar
    28    16    33    1
    29    17    20   ar
    30    17    34    1
    31    18    19   ar
    32    18    20   ar
    33    18    21    1
    34    20    35    1
    35    21    22   ar
    36    21    23   ar
    37    22    24   ar
    38    22    37    1
    39    23    38    1
    40    24    25   ar
    41    24    39    1
    42    25    26    1
    43    27    40    1
    44    27    41    1
    45    27    42    1
