@<TRIPOS>MOLECULE
5284527
 51 54 0 0 0
SMALL
GASTEIGER

@<TRIPOS>ATOM
      1 S           0.3772   -0.4349   -1.4823 S.3     1  UNL1       -0.1311
      2 S          -4.0365   -0.8331    0.3731 S.3     1  UNL1       -0.0801
      3 O           0.5601    3.5232    0.9494 O.2     1  UNL1       -0.2731
      4 O          -2.4623    3.7642    0.0110 O.3     1  UNL1       -0.4763
      5 O           4.3535    1.1217   -1.4687 O.2     1  UNL1       -0.2713
      6 O           5.9448    0.1503    0.5617 O.3     1  UNL1       -0.4492
      7 OXT        -3.0218    2.1055    1.4827 O.2     1  UNL1       -0.2437
      8 O           5.6698    1.8103    2.1520 O.2     1  UNL1       -0.2546
      9 N          -0.3506    1.9383   -0.5405 N.am    1  UNL1       -0.2490
     10 N           2.5591    1.1277    0.0043 N.am    1  UNL1       -0.2984
     11 N          -6.5392   -1.8336    0.9979 N.ar    1  UNL1       -0.2233
     12 N          -6.5489   -0.5805   -0.7720 N.ar    1  UNL1       -0.1015
     13 N          -7.8133   -1.8210    0.5818 N.ar    1  UNL1       -0.0435
     14 N          -7.8131   -1.0526   -0.5006 N.ar    1  UNL1       -0.0222
     15 C           0.5118    1.3658   -1.5581 C.3     1  UNL1        0.1042
     16 CA          1.6870    1.9996   -0.7821 C.3     1  UNL1        0.1284
     17 C           0.5860    2.7026    0.0621 C.2     1  UNL1        0.2440
     18 CA         -1.6713    1.6470   -0.4190 C.2     1  UNL1        0.1228
     19 C          -2.2215    0.5823   -1.0499 C.2     1  UNL1       -0.0211
     20 C          -1.4090   -0.4285   -1.8562 C.3     1  UNL1        0.0196
     21 C          -3.6921    0.2405   -1.0305 C.3     1  UNL1        0.0253
     22 C           3.8372    0.7585   -0.4140 C.2     1  UNL1        0.2592
     23 C          -2.4628    2.5006    0.4794 C.2     1  UNL1        0.3514
     24 C           4.5543   -0.1359    0.5875 C.3     1  UNL1        0.2030
     25 C           4.3514   -1.5995    0.2734 C.ar    1  UNL1        0.0017
     26 C          -5.7767   -1.0755    0.1677 C.ar    1  UNL1        0.2094
     27 C           3.2700   -2.2876    0.8238 C.ar    1  UNL1       -0.0546
     28 C           5.2451   -2.2630   -0.5675 C.ar    1  UNL1       -0.0546
     29 C           3.0823   -3.6389    0.5336 C.ar    1  UNL1       -0.0614
     30 C           5.0573   -3.6143   -0.8577 C.ar    1  UNL1       -0.0614
     31 C           6.3596    1.1459    1.3946 C.2     1  UNL1        0.2953
     32 C           3.9758   -4.3022   -0.3071 C.ar    1  UNL1       -0.0617
     33 C          -6.1633   -2.5828    2.1700 C.3     1  UNL1        0.0346
     34 H           0.3490    1.8017   -2.5509 H       1  UNL1        0.0644
     35 HA          2.2593    2.7219   -1.3777 H       1  UNL1        0.0622
     36 H          -1.7623   -1.4457   -1.6583 H       1  UNL1        0.0423
     37 H          -1.5458   -0.2321   -2.9254 H       1  UNL1        0.0423
     38 H           2.2257    0.7592    0.8921 H       1  UNL1        0.1497
     39 H          -3.9827   -0.2479   -1.9677 H       1  UNL1        0.0427
     40 H          -4.2979    1.1503   -0.9532 H       1  UNL1        0.0427
     41 H           4.1623    0.0439    1.5976 H       1  UNL1        0.0885
     42 H          -2.9808    4.3700    0.5823 H       1  UNL1        0.2954
     43 H           2.5653   -1.7828    1.4792 H       1  UNL1        0.0622
     44 H           6.0879   -1.7483   -1.0206 H       1  UNL1        0.0622
     45 H           2.2397   -4.1743    0.9614 H       1  UNL1        0.0618
     46 H           5.7510   -4.1305   -1.5150 H       1  UNL1        0.0618
     47 H           7.4475    1.2676    1.2786 H       1  UNL1        0.1512
     48 H           3.8290   -5.3541   -0.5340 H       1  UNL1        0.0618
     49 H          -5.4249   -3.3343    1.8805 H       1  UNL1        0.0474
     50 H          -7.0456   -3.0755    2.5871 H       1  UNL1        0.0474
     51 H          -5.7460   -1.8912    2.9058 H       1  UNL1        0.0474
@<TRIPOS>BOND
     1     1    15    1
     2     1    20    1
     3     2    21    1
     4     2    26    1
     5     3    17    2
     6     4    23    1
     7     4    42    1
     8     5    22    2
     9     6    24    1
    10     6    31    1
    11     7    23    2
    12     8    31    2
    13     9    15    1
    14     9    17   am
    15     9    18    1
    16    10    16    1
    17    10    22   am
    18    10    38    1
    19    11    13   ar
    20    11    26   ar
    21    11    33    1
    22    12    14   ar
    23    12    26   ar
    24    13    14   ar
    25    15    16    1
    26    15    34    1
    27    16    17    1
    28    16    35    1
    29    18    19    2
    30    18    23    1
    31    19    20    1
    32    19    21    1
    33    20    36    1
    34    20    37    1
    35    21    39    1
    36    21    40    1
    37    22    24    1
    38    24    25    1
    39    24    41    1
    40    25    27   ar
    41    25    28   ar
    42    27    29   ar
    43    27    43    1
    44    28    30   ar
    45    28    44    1
    46    29    32   ar
    47    29    45    1
    48    30    32   ar
    49    30    46    1
    50    31    47    1
    51    32    48    1
    52    33    49    1
    53    33    50    1
    54    33    51    1
