@<TRIPOS>MOLECULE
6662
 36 37 0 0 0
SMALL
GASTEIGER

@<TRIPOS>ATOM
      1 S          -0.3297   -1.0048    1.2641 S.O2    1  UNL1        0.0835
      2 O           1.3157    1.3039   -0.9103 O.2     1  UNL1       -0.3371
      3 O           0.1869   -0.1602    2.3338 O.2     1  UNL1       -0.1493
      4 O          -0.6592   -2.3974    1.5432 O.2     1  UNL1       -0.1493
      5 O           0.0885   -3.0020   -1.0661 O.2     1  UNL1       -0.2739
      6 N           0.7429   -0.9715   -0.0922 N.am    1  UNL1       -0.1038
      7 N           2.3860    2.1878   -0.8449 N.ar    1  UNL1       -0.0810
      8 N          -5.1577    1.7265   -0.8775 N.pl3   1  UNL1       -0.3580
      9 C           1.6466    0.1938   -0.2343 C.ar    1  UNL1        0.2493
     10 C          -1.7477   -0.2031    0.6357 C.ar    1  UNL1        0.1094
     11 C           2.8910    0.2781    0.2888 C.ar    1  UNL1        0.0356
     12 C           3.3147    1.5533   -0.1239 C.ar    1  UNL1        0.0854
     13 C           0.8132   -2.0092   -1.0956 C.2     1  UNL1        0.2385
     14 C          -2.7507   -0.9463    0.0134 C.ar    1  UNL1       -0.0333
     15 C          -1.8769    1.1807    0.7547 C.ar    1  UNL1       -0.0333
     16 C           3.6331   -0.7085    1.0918 C.3     1  UNL1       -0.0330
     17 C          -3.8830   -0.3056   -0.4898 C.ar    1  UNL1       -0.0392
     18 C          -3.0093    1.8213    0.2517 C.ar    1  UNL1       -0.0392
     19 C          -4.0124    1.0781   -0.3705 C.ar    1  UNL1        0.0247
     20 C           4.6031    2.2134    0.1454 C.3     1  UNL1       -0.0188
     21 C           1.8047   -1.8284   -2.2173 C.3     1  UNL1        0.0143
     22 H          -2.6682   -2.0240   -0.0952 H       1  UNL1        0.0638
     23 H          -1.1055    1.7816    1.2280 H       1  UNL1        0.0638
     24 H           4.6929   -0.7207    0.8170 H       1  UNL1        0.0280
     25 H           3.5595   -0.4642    2.1564 H       1  UNL1        0.0280
     26 H           3.2472   -1.7229    0.9502 H       1  UNL1        0.0280
     27 H          -4.6572   -0.8954   -0.9737 H       1  UNL1        0.0636
     28 H          -3.0975    2.9003    0.3492 H       1  UNL1        0.0636
     29 H           5.4102    1.7117   -0.3982 H       1  UNL1        0.0294
     30 H           4.5947    3.2650   -0.1604 H       1  UNL1        0.0294
     31 H           4.8385    2.1809    1.2142 H       1  UNL1        0.0294
     32 H           2.8254   -1.8283   -1.8278 H       1  UNL1        0.0323
     33 H           1.7107   -2.6635   -2.9185 H       1  UNL1        0.0323
     34 H           1.6001   -0.9042   -2.7638 H       1  UNL1        0.0323
     35 H          -5.8847    1.1889   -1.3307 H       1  UNL1        0.1423
     36 H          -5.2505    2.7300   -0.7930 H       1  UNL1        0.1423
@<TRIPOS>BOND
     1     1     3    2
     2     1     4    2
     3     1     6    1
     4     1    10    1
     5     2     7   ar
     6     2     9   ar
     7     5    13    2
     8     6     9    1
     9     6    13   am
    10     7    12   ar
    11     8    19    1
    12     8    35    1
    13     8    36    1
    14     9    11   ar
    15    10    14   ar
    16    10    15   ar
    17    11    12   ar
    18    11    16    1
    19    12    20    1
    20    13    21    1
    21    14    17   ar
    22    14    22    1
    23    15    18   ar
    24    15    23    1
    25    16    24    1
    26    16    25    1
    27    16    26    1
    28    17    19   ar
    29    17    27    1
    30    18    19   ar
    31    18    28    1
    32    20    29    1
    33    20    30    1
    34    20    31    1
    35    21    32    1
    36    21    33    1
    37    21    34    1
