@<TRIPOS>MOLECULE
77843966
 84 88 0 0 0
SMALL
GASTEIGER

@<TRIPOS>ATOM
      1 CL         -3.5774    2.7790    0.1347 Cl      1  UNL1       -0.0789
      2 S           1.6473   -1.8316   -2.0838 S.3     1  UNL1       -0.1310
      3 S           8.3672    1.9471   -2.7060 S.2     1  UNL1       -0.0604
      4 O           0.8810    1.2133    1.3576 O.2     1  UNL1       -0.2731
      5 O          -0.7330   -2.2310    2.3722 O.co2   1  UNL1       -0.5433
      6 OXT        -1.9048   -0.3902    1.6856 O.co2   1  UNL1       -0.5433
      7 O          -4.6819    0.6864   -1.8991 O.2     1  UNL1       -0.2701
      8 O           3.6960    2.4876    0.4305 O.2     1  UNL1       -0.2683
      9 O           4.8507   -0.1140    1.6553 O.2     1  UNL1       -0.3756
     10 O          -5.2985    4.8451    1.3956 O.3     1  UNL1       -0.5023
     11 O          -8.0410    4.7472    1.6298 O.3     1  UNL1       -0.5033
     12 O           4.6458   -2.0976    4.6244 O.3     1  UNL1       -0.4778
     13 O           3.1132   -0.9245    3.4440 O.2     1  UNL1       -0.2464
     14 N          -2.9471   -3.4987   -0.7487 N.4     1  UNL1        0.2475
     15 N           0.3447   -0.4267   -0.2446 N.am    1  UNL1       -0.2532
     16 N          -5.5025   -0.7576   -0.2797 N.am    1  UNL1       -0.3062
     17 N           3.1559    0.6371   -0.9102 N.am    1  UNL1       -0.2963
     18 N           5.8616    0.2243    0.7448 N.2     1  UNL1       -0.0766
     19 N           5.8638    2.3766   -2.2252 N.ar    1  UNL1       -0.2233
     20 N           6.7287    3.4914   -4.1221 N.pl3   1  UNL1       -0.3375
     21 C          -2.9280   -3.4848   -2.2910 C.3     1  UNL1       -0.0295
     22 C          -3.8531   -4.6822   -0.3511 C.3     1  UNL1       -0.0295
     23 C          -1.5406   -3.6959   -0.2044 C.3     1  UNL1       -0.0052
     24 C          -4.0615   -4.4057   -2.6970 C.3     1  UNL1       -0.0076
     25 C          -4.0293   -5.4774   -1.6298 C.3     1  UNL1       -0.0076
     26 C          -3.5146   -2.1946   -0.2096 C.3     1  UNL1       -0.0138
     27 C          -0.6155   -2.5600   -0.5687 C.2     1  UNL1        0.0078
     28 C          -4.8945   -1.9547   -0.7932 C.3     1  UNL1        0.0521
     29 C           0.8483   -0.2826   -1.5979 C.3     1  UNL1        0.1041
     30 CA         -0.4467   -1.4454    0.1789 C.2     1  UNL1        0.0649
     31 C           0.1249   -2.8159   -1.8778 C.3     1  UNL1        0.0237
     32 CA          1.7244    0.8716   -1.0474 C.3     1  UNL1        0.1286
     33 C           0.9263    0.6746    0.2763 C.2     1  UNL1        0.2438
     34 C          -1.0954   -1.3452    1.5544 C.2     1  UNL1        0.0861
     35 C          -5.3436    0.4838   -0.8845 C.2     1  UNL1        0.2458
     36 C           3.9897    1.4741   -0.1831 C.2     1  UNL1        0.2684
     37 C          -6.0150    1.6277   -0.2155 C.ar    1  UNL1        0.0587
     38 C           5.4270    1.0250   -0.1812 C.2     1  UNL1        0.1898
     39 C          -5.3021    2.7185    0.2820 C.ar    1  UNL1        0.0980
     40 C          -7.4039    1.5874   -0.0922 C.ar    1  UNL1       -0.0445
     41 C           6.3354    1.5187   -1.2507 C.ar    1  UNL1        0.1067
     42 C          -5.9781    3.7692    0.9025 C.ar    1  UNL1        0.1777
     43 C          -8.0799    2.6378    0.5283 C.ar    1  UNL1       -0.0157
     44 C          -7.3670    3.7287    1.0257 C.ar    1  UNL1        0.1598
     45 C           7.6670    1.1726   -1.3454 C.ar    1  UNL1        0.0067
     46 C           5.4066   -0.9857    2.6274 C.3     1  UNL1        0.2281
     47 C           6.8480    2.6688   -3.0462 C.ar    1  UNL1        0.1562
     48 C           6.5286   -0.2401    3.3440 C.3     1  UNL1       -0.0119
     49 C           5.9066   -2.2362    1.9103 C.3     1  UNL1       -0.0119
     50 C           4.2664   -1.3152    3.5819 C.2     1  UNL1        0.3512
     51 H          -2.0105   -3.9759   -2.6240 H       1  UNL1        0.0815
     52 H          -2.9731   -2.4671   -2.6873 H       1  UNL1        0.0815
     53 H          -4.7983   -4.3429    0.0706 H       1  UNL1        0.0815
     54 H          -3.3473   -5.2735    0.4203 H       1  UNL1        0.0815
     55 H          -1.6415   -3.8335    0.8752 H       1  UNL1        0.0866
     56 H          -1.1693   -4.6548   -0.5884 H       1  UNL1        0.0866
     57 H          -4.9402   -6.0825   -1.6162 H       1  UNL1        0.0319
     58 H          -5.0286   -3.8946   -2.7035 H       1  UNL1        0.0319
     59 H          -3.9065   -4.8216   -3.6974 H       1  UNL1        0.0319
     60 H          -3.1772   -6.1502   -1.7841 H       1  UNL1        0.0319
     61 H          -3.5607   -2.2729    0.8811 H       1  UNL1        0.0831
     62 H          -2.8816   -1.3660   -0.5297 H       1  UNL1        0.0831
     63 H          -4.8625   -1.8351   -1.8790 H       1  UNL1        0.0515
     64 H          -5.6212   -2.7374   -0.5752 H       1  UNL1        0.0515
     65 H           0.0755    0.0604   -2.2972 H       1  UNL1        0.0644
     66 H           0.4254   -3.8651   -1.9566 H       1  UNL1        0.0425
     67 H          -0.5054   -2.5642   -2.7329 H       1  UNL1        0.0425
     68 HA          1.5200    1.8350   -1.5290 H       1  UNL1        0.0622
     69 H          -6.0503   -0.8292    0.5730 H       1  UNL1        0.1492
     70 H           3.5784   -0.1712   -1.3610 H       1  UNL1        0.1499
     71 H          -7.9752    0.7471   -0.4787 H       1  UNL1        0.0627
     72 H          -9.1622    2.5938    0.6166 H       1  UNL1        0.0655
     73 H           8.2529    0.5254   -0.7078 H       1  UNL1        0.0716
     74 H          -4.3498    4.7111    1.2270 H       1  UNL1        0.2923
     75 H          -8.9925    4.5456    1.6232 H       1  UNL1        0.2923
     76 H           7.3731   -0.0106    2.6850 H       1  UNL1        0.0274
     77 H           6.9230   -0.8239    4.1830 H       1  UNL1        0.0274
     78 H           6.2307   -3.0003    2.6253 H       1  UNL1        0.0274
     79 H           6.7532   -2.0330    1.2455 H       1  UNL1        0.0274
     80 H           6.1672    0.7148    3.7440 H       1  UNL1        0.0274
     81 H           5.1129   -2.6737    1.2930 H       1  UNL1        0.0274
     82 H           5.8487    3.9381   -4.3582 H       1  UNL1        0.1442
     83 H           7.5147    3.6915   -4.7319 H       1  UNL1        0.1442
     84 H           3.8957   -2.2962    5.2246 H       1  UNL1        0.2952
@<TRIPOS>BOND
     1     1    39    1
     2     2    29    1
     3     2    31    1
     4     3    45   ar
     5     3    47   ar
     6     4    33    2
     7     5    34   ar
     8     6    34   ar
     9     7    35    2
    10     8    36    2
    11     9    18    1
    12     9    46    1
    13    10    42    1
    14    10    74    1
    15    11    44    1
    16    11    75    1
    17    12    50    1
    18    12    84    1
    19    13    50    2
    20    14    21    1
    21    14    22    1
    22    14    23    1
    23    14    26    1
    24    15    29    1
    25    15    30    1
    26    15    33   am
    27    16    28    1
    28    16    35   am
    29    16    69    1
    30    17    32    1
    31    17    36   am
    32    17    70    1
    33    18    38    2
    34    19    41   ar
    35    19    47   ar
    36    20    47    1
    37    20    82    1
    38    20    83    1
    39    21    24    1
    40    21    51    1
    41    21    52    1
    42    22    25    1
    43    22    53    1
    44    22    54    1
    45    23    27    1
    46    23    55    1
    47    23    56    1
    48    24    25    1
    49    24    58    1
    50    24    59    1
    51    25    57    1
    52    25    60    1
    53    26    28    1
    54    26    61    1
    55    26    62    1
    56    27    30    2
    57    27    31    1
    58    28    63    1
    59    28    64    1
    60    29    32    1
    61    29    65    1
    62    30    34    1
    63    31    66    1
    64    31    67    1
    65    32    33    1
    66    32    68    1
    67    35    37    1
    68    36    38    1
    69    37    39   ar
    70    37    40   ar
    71    38    41    1
    72    39    42   ar
    73    40    43   ar
    74    40    71    1
    75    41    45   ar
    76    42    44   ar
    77    43    44   ar
    78    43    72    1
    79    45    73    1
    80    46    48    1
    81    46    49    1
    82    46    50    1
    83    48    76    1
    84    48    77    1
    85    48    80    1
    86    49    78    1
    87    49    79    1
    88    49    81    1
