@<TRIPOS>MOLECULE
57331386
 54 57 0 0 0
SMALL
GASTEIGER

@<TRIPOS>ATOM
      1 S           0.8732    0.8053   -0.5775 S.2     1  UNL1       -0.0467
      2 F           6.9309   -1.9276    0.3483 F       1  UNL1       -0.1659
      3 F           7.5325   -0.0768   -0.6213 F       1  UNL1       -0.1659
      4 F           7.1980   -0.1163    1.5212 F       1  UNL1       -0.1659
      5 O           2.4297   -3.1396   -0.8141 O.2     1  UNL1       -0.2651
      6 O           3.1786    3.3760   -1.2529 O.co2   1  UNL1       -0.5760
      7 O           2.8457    3.3428    0.9167 O.2     1  UNL1        0.0415
      8 N          -3.9479    0.2810    0.2480 N.3     1  UNL1       -0.2991
      9 N          -1.2279   -0.5510    0.1402 N.pl3   1  UNL1       -0.3071
     10 N           0.6764   -1.8585   -0.1230 N.ar    1  UNL1       -0.1867
     11 N           3.1605    2.7764   -0.1542 N.pl3   1  UNL1        0.0808
     12 C          -6.3592    0.2246   -0.2698 C.3     1  UNL1       -0.0282
     13 C          -6.7007   -0.4364    1.0726 C.3     1  UNL1       -0.0490
     14 C          -7.5400    1.0592   -0.7837 C.3     1  UNL1       -0.0490
     15 C          -5.1043    1.0862   -0.1431 C.3     1  UNL1        0.0018
     16 C          -8.8208    0.2320   -0.8684 C.3     1  UNL1       -0.0528
     17 C          -7.9827   -1.2612    0.9847 C.3     1  UNL1       -0.0528
     18 C          -9.1519   -0.4306    0.4652 C.3     1  UNL1       -0.0530
     19 C          -3.4479   -0.4948   -0.8965 C.3     1  UNL1        0.0147
     20 C          -2.8821    1.1367    0.7898 C.3     1  UNL1        0.0147
     21 C          -1.6835    0.2982    1.2372 C.3     1  UNL1        0.0268
     22 C          -2.2620   -1.3694   -0.4868 C.3     1  UNL1        0.0268
     23 C           0.0839   -0.7034   -0.1524 C.ar    1  UNL1        0.1653
     24 C           2.5634    0.3768   -0.2826 C.ar    1  UNL1        0.1047
     25 C           2.9751   -0.9549   -0.2414 C.ar    1  UNL1        0.0621
     26 C           2.0013   -2.0550   -0.4283 C.ar    1  UNL1        0.2808
     27 C           3.5120    1.3947   -0.1214 C.ar    1  UNL1        0.2881
     28 C           4.3276   -1.2673   -0.0456 C.ar    1  UNL1       -0.0362
     29 C           5.2642   -0.2476    0.1193 C.ar    1  UNL1        0.0620
     30 C           4.8567    1.0829    0.0822 C.ar    1  UNL1        0.0284
     31 C           6.7012   -0.5823    0.3373 C.3     1  UNL1        0.4177
     32 H          -6.1987   -0.5691   -1.0093 H       1  UNL1        0.0313
     33 H          -6.8201    0.3306    1.8487 H       1  UNL1        0.0268
     34 H          -5.8892   -1.0967    1.3996 H       1  UNL1        0.0268
     35 H          -7.3078    1.4661   -1.7752 H       1  UNL1        0.0268
     36 H          -7.7087    1.9168   -0.1198 H       1  UNL1        0.0268
     37 H          -5.2999    1.8526    0.6196 H       1  UNL1        0.0429
     38 H          -4.9092    1.6292   -1.0775 H       1  UNL1        0.0429
     39 H          -8.2291   -1.6656    1.9730 H       1  UNL1        0.0265
     40 H          -7.8201   -2.1188    0.3202 H       1  UNL1        0.0265
     41 H          -8.7072   -0.5386   -1.6409 H       1  UNL1        0.0265
     42 H          -9.6536    0.8735   -1.1778 H       1  UNL1        0.0265
     43 H         -10.0357   -1.0683    0.3510 H       1  UNL1        0.0265
     44 H          -9.4073    0.3408    1.2022 H       1  UNL1        0.0265
     45 H          -3.1414    0.1740   -1.7123 H       1  UNL1        0.0442
     46 H          -4.2163   -1.1640   -1.2952 H       1  UNL1        0.0442
     47 H          -3.2522    1.6916    1.6604 H       1  UNL1        0.0442
     48 H          -2.5602    1.8735    0.0417 H       1  UNL1        0.0442
     49 H          -1.8693   -1.8755   -1.3770 H       1  UNL1        0.0477
     50 H          -2.5837   -2.1483    0.2155 H       1  UNL1        0.0477
     51 H          -1.9713   -0.3424    2.0808 H       1  UNL1        0.0477
     52 H          -0.8957    0.9610    1.6120 H       1  UNL1        0.0477
     53 H           4.6477   -2.3058   -0.0130 H       1  UNL1        0.0631
     54 H           5.5925    1.8743    0.2105 H       1  UNL1        0.0691
@<TRIPOS>BOND
     1     1    23   ar
     2     1    24   ar
     3     2    31    1
     4     3    31    1
     5     4    31    1
     6     5    26    2
     7     6    11    1
     8     7    11    2
     9     8    15    1
    10     8    19    1
    11     8    20    1
    12     9    21    1
    13     9    22    1
    14     9    23    1
    15    10    23   ar
    16    10    26   ar
    17    11    27    1
    18    12    13    1
    19    12    14    1
    20    12    15    1
    21    12    32    1
    22    13    17    1
    23    13    33    1
    24    13    34    1
    25    14    16    1
    26    14    35    1
    27    14    36    1
    28    15    37    1
    29    15    38    1
    30    16    18    1
    31    16    41    1
    32    16    42    1
    33    17    18    1
    34    17    39    1
    35    17    40    1
    36    18    43    1
    37    18    44    1
    38    19    22    1
    39    19    45    1
    40    19    46    1
    41    20    21    1
    42    20    47    1
    43    20    48    1
    44    21    51    1
    45    21    52    1
    46    22    49    1
    47    22    50    1
    48    24    25   ar
    49    24    27   ar
    50    25    26   ar
    51    25    28   ar
    52    27    30   ar
    53    28    29   ar
    54    28    53    1
    55    29    30   ar
    56    29    31    1
    57    30    54    1
