@<TRIPOS>MOLECULE
9997821
 44 45 0 0 0
SMALL
GASTEIGER

@<TRIPOS>ATOM
      1 S          -3.8056    0.2217    0.2911 S.O2    1  UNL1       -0.0042
      2 O          -4.8944    0.9382   -0.3440 O.2     1  UNL1       -0.1720
      3 O          -3.9614   -0.3171    1.6296 O.2     1  UNL1       -0.1720
      4 O          -0.8133   -2.8928    0.5402 O.2     1  UNL1       -0.2754
      5 O           0.6927    1.5779    0.0249 O.3     1  UNL1       -0.4260
      6 O           0.4026   -0.0222   -1.6166 O.2     1  UNL1       -0.2486
      7 O           2.9029    1.0269   -0.7413 O.3     1  UNL1       -0.4269
      8 O           3.0188    0.8012    1.5458 O.2     1  UNL1       -0.2502
      9 N          -1.7675   -0.9765   -0.4494 N.am    1  UNL1       -0.2633
     10 C          -2.2750    1.2606    0.2424 C.3     1  UNL1        0.1130
     11 C          -3.1916   -1.0412   -0.8125 C.3     1  UNL1        0.1535
     12 C          -1.1738    0.1843    0.1864 C.3     1  UNL1        0.1491
     13 C          -3.1581   -2.5162   -0.3952 C.3     1  UNL1        0.0629
     14 C          -1.6838   -2.2673   -0.0211 C.2     1  UNL1        0.2211
     15 C          -2.1801    2.1127    1.5087 C.3     1  UNL1       -0.0379
     16 C          -2.3228    2.1688   -0.9961 C.3     1  UNL1       -0.0379
     17 C           0.0528    0.5424   -0.5891 C.2     1  UNL1        0.3328
     18 C           1.8966    2.0438   -0.6069 C.3     1  UNL1        0.2388
     19 C           4.4501   -0.5682    0.1152 C.3     1  UNL1        0.0595
     20 C           3.3811    0.4859    0.4188 C.2     1  UNL1        0.3152
     21 C           5.6086    0.0892   -0.6471 C.3     1  UNL1       -0.0499
     22 C           4.9854   -1.1505    1.4332 C.3     1  UNL1       -0.0499
     23 C           3.8356   -1.7015   -0.7170 C.3     1  UNL1       -0.0499
     24 H          -3.3654   -0.8349   -1.8722 H       1  UNL1        0.0750
     25 H          -0.8616   -0.1310    1.1904 H       1  UNL1        0.0639
     26 H          -3.2872   -3.2315   -1.2120 H       1  UNL1        0.0393
     27 H          -3.7936   -2.7958    0.4482 H       1  UNL1        0.0393
     28 H          -3.0530    2.7681    1.6049 H       1  UNL1        0.0251
     29 H          -2.1399    1.4938    2.4115 H       1  UNL1        0.0251
     30 H          -1.2853    2.7435    1.4987 H       1  UNL1        0.0251
     31 H          -3.1882    2.8400   -0.9593 H       1  UNL1        0.0251
     32 H          -1.4327    2.8023   -1.0690 H       1  UNL1        0.0251
     33 H          -2.4019    1.5884   -1.9215 H       1  UNL1        0.0251
     34 H           2.2969    2.8774   -0.0195 H       1  UNL1        0.1168
     35 H           1.6552    2.4267   -1.6045 H       1  UNL1        0.1168
     36 H           6.4220   -0.6235   -0.8232 H       1  UNL1        0.0240
     37 H           6.0176    0.9378   -0.0867 H       1  UNL1        0.0240
     38 H           5.2867    0.4695   -1.6231 H       1  UNL1        0.0240
     39 H           5.7557   -1.9081    1.2499 H       1  UNL1        0.0240
     40 H           4.1838   -1.6222    2.0134 H       1  UNL1        0.0240
     41 H           5.4278   -0.3692    2.0623 H       1  UNL1        0.0240
     42 H           2.9707   -2.1401   -0.2058 H       1  UNL1        0.0240
     43 H           4.5631   -2.5002   -0.8991 H       1  UNL1        0.0240
     44 H           3.4869   -1.3428   -1.6920 H       1  UNL1        0.0240
@<TRIPOS>BOND
     1     1     2    2
     2     1     3    2
     3     1    10    1
     4     1    11    1
     5     4    14    2
     6     5    17    1
     7     5    18    1
     8     6    17    2
     9     7    18    1
    10     7    20    1
    11     8    20    2
    12     9    11    1
    13     9    12    1
    14     9    14   am
    15    10    12    1
    16    10    15    1
    17    10    16    1
    18    11    13    1
    19    11    24    1
    20    12    17    1
    21    12    25    1
    22    13    14    1
    23    13    26    1
    24    13    27    1
    25    15    28    1
    26    15    29    1
    27    15    30    1
    28    16    31    1
    29    16    32    1
    30    16    33    1
    31    18    34    1
    32    18    35    1
    33    19    20    1
    34    19    21    1
    35    19    22    1
    36    19    23    1
    37    21    36    1
    38    21    37    1
    39    21    38    1
    40    22    39    1
    41    22    40    1
    42    22    41    1
    43    23    42    1
    44    23    43    1
    45    23    44    1
