@<TRIPOS>MOLECULE
89851852
 29 30 0 0 0
SMALL
GASTEIGER

@<TRIPOS>ATOM
      1 S           3.4955    0.1051    0.2384 S.O2    1  UNL1        0.2271
      2 O           2.3322   -0.6593   -0.6340 O.3     1  UNL1       -0.0959
      3 O           0.4763    1.3584   -1.8351 O.2     1  UNL1       -0.2501
      4 O          -4.0075   -0.0708    0.8770 O.2     1  UNL1       -0.2736
      5 O           4.8767   -0.5877   -0.2817 O.3     1  UNL1       -0.2297
      6 O           3.3240   -0.2529    1.6341 O.2     1  UNL1       -0.1164
      7 O           3.5232    1.4973   -0.1699 O.2     1  UNL1       -0.1164
      8 N          -0.8468    0.8717    0.1337 N.am    1  UNL1       -0.2664
      9 N           1.0516   -0.2999   -0.2371 N.am    1  UNL1       -0.1285
     10 N          -3.4065    2.0945    0.3823 N.am    1  UNL1       -0.3275
     11 C           0.2757   -0.9802    0.7949 C.3     1  UNL1        0.0910
     12 C          -0.4079    0.2440    1.3863 C.3     1  UNL1        0.0419
     13 C          -2.0563    0.2859   -0.4548 C.3     1  UNL1        0.1246
     14 C          -1.9077   -1.2432   -0.4255 C.2     1  UNL1       -0.0456
     15 C          -0.8124   -1.8217    0.1309 C.2     1  UNL1       -0.0586
     16 C           0.3121    0.7766   -0.7737 C.2     1  UNL1        0.3311
     17 C          -3.2469    0.7296    0.3382 C.2     1  UNL1        0.2353
     18 C          -2.9755   -2.0473   -1.1041 C.3     1  UNL1       -0.0415
     19 H           0.8936   -1.5364    1.5017 H       1  UNL1        0.0586
     20 H          -1.2409    0.0394    2.0658 H       1  UNL1        0.0488
     21 H           0.3076    0.9160    1.8764 H       1  UNL1        0.0488
     22 H          -2.1532    0.6306   -1.4914 H       1  UNL1        0.0645
     23 H          -0.6797   -2.8990    0.1155 H       1  UNL1        0.0592
     24 H          -3.9145   -2.0356   -0.5458 H       1  UNL1        0.0275
     25 H          -2.6785   -3.0960   -1.2155 H       1  UNL1        0.0275
     26 H          -3.1629   -1.6565   -2.1096 H       1  UNL1        0.0275
     27 H          -2.7606    2.7290   -0.0765 H       1  UNL1        0.1450
     28 H          -4.1810    2.5147    0.8851 H       1  UNL1        0.1450
     29 H           5.7023   -0.2506    0.1389 H       1  UNL1        0.2470
@<TRIPOS>BOND
     1     1     2    1
     2     1     5    1
     3     1     6    2
     4     1     7    2
     5     2     9    1
     6     3    16    2
     7     4    17    2
     8     5    29    1
     9     8    12    1
    10     8    13    1
    11     8    16   am
    12     9    11    1
    13     9    16   am
    14    10    17   am
    15    10    27    1
    16    10    28    1
    17    11    12    1
    18    11    15    1
    19    11    19    1
    20    12    20    1
    21    12    21    1
    22    13    14    1
    23    13    17    1
    24    13    22    1
    25    14    15    2
    26    14    18    1
    27    15    23    1
    28    18    24    1
    29    18    25    1
    30    18    26    1
