@<TRIPOS>MOLECULE
9850038
 47 50 0 0 0
SMALL
GASTEIGER

@<TRIPOS>ATOM
      1 F           1.7019   -2.9099    0.3162 F       1  UNL1       -0.2035
      2 O           6.7815    0.6520   -0.1473 O.3     1  UNL1       -0.3917
      3 O          -3.3013   -2.4178    0.2157 O.2     1  UNL1       -0.2863
      4 O          -5.5957   -1.3970   -0.5635 O.3     1  UNL1       -0.4770
      5 O          -5.9660    0.6627    0.3589 O.2     1  UNL1       -0.2449
      6 N           2.7408   -0.3946    0.0082 N.pl3   1  UNL1       -0.3273
      7 N          -1.8404    1.3678   -0.1997 N.ar    1  UNL1       -0.3426
      8 C           0.4752    0.5046   -0.1326 C.ar    1  UNL1        0.0007
      9 C          -1.3224    2.7475   -0.2279 C.3     1  UNL1        0.0320
     10 C           1.0506    1.8837   -0.3141 C.3     1  UNL1       -0.0220
     11 C           0.0265    2.8144   -0.9487 C.3     1  UNL1       -0.0282
     12 C          -0.9194    0.3005   -0.0846 C.ar    1  UNL1        0.0581
     13 C           1.3529   -0.5808    0.0155 C.ar    1  UNL1        0.0706
     14 C           3.3963   -0.1404    1.2995 C.3     1  UNL1        0.0146
     15 C           3.5523   -1.0628   -1.0163 C.3     1  UNL1        0.0146
     16 C           4.7134    0.6024    1.0945 C.3     1  UNL1       -0.0110
     17 C           4.8727   -0.3240   -1.2200 C.3     1  UNL1       -0.0110
     18 C           5.6129   -0.1215    0.0973 C.3     1  UNL1        0.0581
     19 C          -1.3934   -1.0215    0.0679 C.ar    1  UNL1        0.0491
     20 C           0.8622   -1.8736    0.1794 C.ar    1  UNL1        0.1454
     21 C          -1.2625    3.3149    1.1935 C.3     1  UNL1       -0.0442
     22 C          -3.1975    1.0964   -0.1787 C.ar    1  UNL1        0.0231
     23 C          -0.5103   -2.0991    0.2001 C.ar    1  UNL1       -0.0118
     24 C          -2.8568   -1.2837    0.0885 C.ar    1  UNL1        0.2035
     25 C          -3.7568   -0.1123   -0.0526 C.ar    1  UNL1        0.1220
     26 C          -5.2170   -0.2076   -0.0494 C.2     1  UNL1        0.3420
     27 H          -2.0172    3.3763   -0.8014 H       1  UNL1        0.0525
     28 H           1.3708    2.2725    0.6592 H       1  UNL1        0.0315
     29 H           1.9292    1.8592   -0.9695 H       1  UNL1        0.0315
     30 H           0.4104    3.8413   -0.9533 H       1  UNL1        0.0288
     31 H          -0.1182    2.5267   -1.9992 H       1  UNL1        0.0288
     32 H           3.5763   -1.0941    1.8112 H       1  UNL1        0.0464
     33 H           2.7526    0.4630    1.9512 H       1  UNL1        0.0464
     34 H           3.0147   -1.0897   -1.9720 H       1  UNL1        0.0464
     35 H           3.7538   -2.0989   -0.7191 H       1  UNL1        0.0464
     36 H           4.5148    1.6212    0.7356 H       1  UNL1        0.0305
     37 H           5.2350    0.7199    2.0517 H       1  UNL1        0.0305
     38 H           5.5050   -0.8743   -1.9271 H       1  UNL1        0.0305
     39 H           4.6834    0.6519   -1.6869 H       1  UNL1        0.0305
     40 H           5.9262   -1.0870    0.5117 H       1  UNL1        0.0594
     41 H          -0.8527    4.3302    1.1895 H       1  UNL1        0.0250
     42 H          -2.2652    3.3610    1.6328 H       1  UNL1        0.0250
     43 H          -0.6481    2.6999    1.8591 H       1  UNL1        0.0250
     44 H          -3.8019    1.9931   -0.2756 H       1  UNL1        0.0819
     45 H          -0.8724   -3.1160    0.3224 H       1  UNL1        0.0654
     46 H           7.3314    0.1607   -0.7813 H       1  UNL1        0.2098
     47 H          -6.5713   -1.4986   -0.5778 H       1  UNL1        0.2954
@<TRIPOS>BOND
     1     1    20    1
     2     2    18    1
     3     2    46    1
     4     3    24    2
     5     4    26    1
     6     4    47    1
     7     5    26    2
     8     6    13    1
     9     6    14    1
    10     6    15    1
    11     7     9    1
    12     7    12   ar
    13     7    22   ar
    14     8    10    1
    15     8    12   ar
    16     8    13   ar
    17     9    11    1
    18     9    21    1
    19     9    27    1
    20    10    11    1
    21    10    28    1
    22    10    29    1
    23    11    30    1
    24    11    31    1
    25    12    19   ar
    26    13    20   ar
    27    14    16    1
    28    14    32    1
    29    14    33    1
    30    15    17    1
    31    15    34    1
    32    15    35    1
    33    16    18    1
    34    16    36    1
    35    16    37    1
    36    17    18    1
    37    17    38    1
    38    17    39    1
    39    18    40    1
    40    19    23   ar
    41    19    24   ar
    42    20    23   ar
    43    21    41    1
    44    21    42    1
    45    21    43    1
    46    22    25   ar
    47    22    44    1
    48    23    45    1
    49    24    25   ar
    50    25    26    1
